version 2
run Net1-0-20241212-15:16:47-5019
attr configname Net1
attr datetime 20241212-15:16:47
attr experiment Net1
attr inifile omnetpp.ini
attr iterationvars ""
attr iterationvarsf ""
attr measurement ""
attr network Net
attr processid 5019
attr repetition 0
attr replication #0
attr resultdir results
attr runnumber 0
attr seedset 4
param **.**.avgInterArrivalTime 0.25s
param **.**.avgServiceTime 0.5s
param **.buffer*.LCFS false
param **.buffer*.queueLimit 100
param **.n_servers 8

vector 0 Net.buffer1 qlen:vector ETV
attr interpolationmode sample-hold
attr title "queue length, vector"
vector 1 Net.server[1] responseTime:vector ETV
attr interpolationmode none
attr title "response time at end of service, vector"
attr unit s
vector 2 Net.sink1 lifetime:vector ETV
attr interpolationmode none
attr title "lifetime of arrived msg, vector"
attr unit s
vector 3 Net.sink1 arrivedMsg:vector ETV
attr interpolationmode none
attr title "number of arrived msg, vector"
vector 4 Net.server[0] responseTime:vector ETV
attr interpolationmode none
attr title "response time at end of service, vector"
attr unit s
vector 5 Net.server[2] responseTime:vector ETV
attr interpolationmode none
attr title "response time at end of service, vector"
attr unit s
vector 6 Net.server[3] responseTime:vector ETV
attr interpolationmode none
attr title "response time at end of service, vector"
attr unit s
vector 7 Net.server[4] responseTime:vector ETV
attr interpolationmode none
attr title "response time at end of service, vector"
attr unit s
vector 8 Net.server[5] responseTime:vector ETV
attr interpolationmode none
attr title "response time at end of service, vector"
attr unit s
vector 9 Net.server[6] responseTime:vector ETV
attr interpolationmode none
attr title "response time at end of service, vector"
attr unit s
vector 10 Net.server[7] responseTime:vector ETV
attr interpolationmode none
attr title "response time at end of service, vector"
attr unit s
vector 11 Net.buffer1 queueingTime:vector ETV
attr interpolationmode none
attr title "queueing time at dequeue, vector"
attr unit s
0	0	0	0
0	8868	327.040181762565	1
0	8871	327.153271614694	0
0	22301	813.57242829679	1
0	22303	813.604953016382	2
0	22305	813.638243030645	3
0	22307	813.67707478899	4
0	22310	813.678028221511	3
0	22314	813.887748559115	4
0	22317	813.910256612822	3
0	22321	814.121041066357	4
0	22324	814.126336380044	3
0	22329	814.1739675102	2
0	22334	814.180168693833	1
0	22338	814.272424924103	2
0	22341	814.377582899053	1
0	22346	814.521124276708	0
0	40816	1471.782345530682	1
0	40819	1471.882626158895	0
0	46913	1694.101736008481	1
0	46916	1694.180161883483	0
0	50252	1816.223149349877	1
0	50255	1816.262635235304	0
0	60794	2185.002837401525	1
0	60796	2185.091254179574	2
0	60799	2185.108651337647	1
0	60804	2185.247453233142	0
0	60808	2185.258010301608	1
0	60811	2185.288947222877	0
0	60815	2185.289996324057	1
0	60817	2185.308151211739	2
0	60820	2185.323360655753	1
0	60825	2185.370501457974	0
0	70881	2545.769391090702	1
0	70884	2545.788147484694	0
0	95066	3414.225771900741	1
0	95069	3414.250169530022	0
0	95073	3414.253587366685	1
0	95075	3414.288922619239	2
0	95078	3414.303388393766	1
0	95083	3414.329574000323	0
0	99406	3564.621260876366	1
0	99409	3564.633174390907	0
0	99413	3564.649601608379	1
0	99416	3564.750027688072	0
1	9	0.947829200734	0.094791120938
1	23	2.018788631438	0.967656555319
1	44	2.719961066452	0.455099916682
1	93	4.729140350132	1.16744323689
1	132	6.611930847003	0.835517715044
1	163	8.492699544754	0.295610558447
1	184	8.991222920309	0.291114747349
1	213	10.001180088864	1.004520449541
1	223	10.536653788927	0.15120978823
1	230	10.588027843964	0.01820658687
1	247	10.728327315854	0.129879566009
1	278	11.641666100378	0.23529664855
1	289	11.921282274727	0.126178391784
1	296	12.114275576697	0.07468592752
1	314	12.670184434507	0.216680588906
1	327	12.967972419177	0.222180708076
1	363	14.255831053533	0.134686241953
1	374	14.554997211659	0.067441387343
1	394	15.291395033648	0.578525849023
1	425	16.575823435126	1.044835141913
1	440	17.062510471279	0.236138682629
1	451	17.800249012466	0.661080107603
1	475	18.367385806341	0.041679521968
1	485	18.625211386808	0.050019614637
1	495	18.768187571443	0.122586136436
1	506	19.59085922139	0.052891650827
1	513	19.751936280432	0.033204202005
1	527	20.055751234286	0.088888980428
1	549	20.609124302138	0.448089230406
1	574	21.279644532274	0.367687582999
1	622	22.870828715522	0.772652422627
1	686	25.139168836531	1.311454482854
1	696	25.34632664336	0.07362731675
1	706	25.407966535576	0.059679201741
1	713	25.518759680643	0.037514412577
1	720	25.724375001306	0.107363954889
1	730	26.200251933194	0.001465443182
1	786	28.799674910795	1.383378921313
1	800	29.032295470367	0.18465909888
1	835	30.880061440755	1.247550065737
1	849	31.407468295596	0.005240705257
1	899	34.458944003426	0.437986670238
1	943	35.632404630083	1.135019529184
1	969	36.599860729431	0.338427941252
1	983	36.887321189981	0.26350755889
1	997	37.580656880852	0.336367602373
1	1045	39.355052774196	1.141841326026
1	1076	40.847448258075	0.700918156684
1	1094	41.734927456458	0.743547370643
1	1115	42.345764556967	0.525947971816
1	1126	42.536541139274	0.174518209148
1	1140	43.088396336885	0.153439587871
1	1154	44.179917202214	1.048102244376
1	1164	44.612278844505	0.164608063376
1	1202	46.375954981142	0.650478089126
1	1220	47.260946486723	0.008310492318
1	1235	48.220397009329	0.187977395868
1	1242	48.247351218635	0.010071946241
1	1249	48.365714036809	0.054235585739
1	1260	48.454447069274	0.049402493177
1	1284	48.812305403127	0.2505501452
1	1294	49.529702146185	0.046118265274
1	1318	50.292078429476	0.180031302641
1	1346	52.243945436909	0.687674130583
1	1367	52.73135037284	0.477726342688
1	1416	54.243087683979	1.472872681213
1	1435	54.831671093314	0.310738721765
1	1486	55.856261649	0.995155654493
1	1503	56.482248246148	0.101953244947
1	1517	57.213474809272	0.047480918822
1	1528	57.708177690709	0.114273671292
1	1549	59.336327801096	0.099514303333
1	1556	60.104663175319	0.511605286072
1	1591	62.736952810851	0.246370348972
1	1602	62.819528125579	0.059321005184
1	1623	63.738513344394	0.785109991347
1	1663	64.129808792107	0.376525437793
1	1715	65.557896290719	1.017907266578
1	1736	66.495591603956	0.193099439285
1	1769	67.589717846282	0.382880621622
1	1788	68.138164574202	0.256830727564
1	1805	68.336968503206	0.071861351802
1	1834	69.019373123891	0.261074602269
1	1871	69.865344904844	0.844149630844
1	1878	69.940374560301	0.035731585508
1	1928	71.197294555492	1.147429381269
1	1935	71.410470619685	0.137895743978
1	1948	72.133614832763	0.337590924264
1	1979	73.087846454165	0.351599173897
1	2004	74.258241658881	0.93602802759
1	2019	75.295536995363	0.41790871338
1	2029	75.557772269399	0.052235619504
1	2096	77.418004886019	1.629890375782
1	2120	77.94199064182	0.51845061895
1	2162	79.388266038729	0.378498294809
1	2183	79.996760156634	0.120216743976
1	2201	80.535569361246	0.14038585173
1	2243	81.464237415693	0.85535354818
1	2250	81.544763746536	0.065310642571
1	2263	81.722342525766	0.052945571257
1	2288	83.05174999724	0.683832894144
1	2312	84.866011330547	1.013403968965
1	2326	85.406929578597	0.35820422163
1	2337	85.937413443446	0.112186092487
1	2365	87.027409677847	0.556732699357
1	2400	87.653418421292	0.40488574487
1	2424	88.85362614195	0.000390599739
1	2497	91.202291358258	2.275928213258
1	2519	91.705254183616	0.457560982051
1	2540	92.606807699445	0.765253032646
1	2557	93.045212486869	0.164661796387
1	2606	95.196349906178	0.638763253383
1	2641	96.830044086475	1.28271136029
1	2706	98.989718383269	1.859399238259
1	2749	100.224204169676	0.408421303669
1	2767	101.985288153997	0.94044459035
1	2791	103.472105786308	0.900438346235
1	2820	104.093268266376	0.361621577718
1	2841	104.87830093958	0.051590249832
1	2858	105.314076560143	0.42640201521
1	2879	106.02655120752	0.032148045252
1	2886	106.217311995999	0.12132900633
1	2897	106.529436982884	0.131787191798
1	2904	106.580451142683	0.029668994945
1	2922	107.11583733607	0.532832142125
1	2956	108.031513604708	0.824448005363
1	3036	111.071916028939	2.600746052497
1	3047	111.402115546828	0.251581642489
1	3054	111.756124697097	0.142045954261
1	3097	112.822052102857	0.86386568922
1	3132	113.674268050423	0.735534615035
1	3146	114.162280681956	0.025300533046
1	3201	116.574483293727	2.075201637087
1	3208	116.746964817332	0.045690408457
1	3226	117.526911799995	0.738543215885
1	3250	118.167481198922	0.138509398902
1	3334	121.366814821017	1.805851451972
1	3348	122.260765342453	0.107422119835
1	3355	122.432030038285	0.125675538231
1	3369	123.678307481622	0.578723469747
1	3380	123.966435839708	0.169924934335
1	3422	125.878009233436	0.313286662626
1	3472	127.748381629905	1.530059655513
1	3499	128.821369360324	0.760884841308
1	3513	129.267438725749	0.319664887612
1	3531	129.992037260416	0.373725813597
1	3544	131.119321905328	0.14204017635
1	3595	133.3600564312	0.841977665422
1	3634	134.138893160586	0.590180786715
1	3664	134.574841950483	0.428002663609
1	3685	135.11031253345	0.139446608572
1	3702	135.844234302591	0.653181519333
1	3733	137.029522189139	0.649291576712
1	3747	138.045963075839	0.732972465104
1	3772	139.21697484339	0.897317554081
1	3806	141.475628856861	2.219252798117
1	3834	142.772645635985	0.483332156361
1	3859	144.216880420692	0.440567697234
1	3873	144.801532939024	0.476079883659
1	3916	146.089489942683	0.351510217618
1	3947	147.449650879669	0.037890929907
1	3978	149.893335174004	0.435316805431
1	4032	152.176634611148	2.168033449551
1	4066	153.502519677097	0.650712621061
1	4101	154.880874215428	0.295596488949
1	4118	155.83966571208	0.089129449527
1	4125	155.959410633803	0.09114739412
1	4150	156.573896949314	0.470703212372
1	4224	159.604287348279	2.031097628559
1	4252	160.126777536959	0.126232352684
1	4262	160.216600095951	0.059038376658
1	4287	160.591272135948	0.336108606287
1	4314	161.628899662228	0.033068598927
1	4321	161.849017888606	0.142355045728
1	4350	162.311634940688	0.319273630067
1	4396	163.32871877049	0.390280907836
1	4419	164.933839023391	0.370539791285
1	4429	165.392107973982	0.233123643024
1	4462	167.095557341066	0.549726433207
1	4473	167.245381458602	0.128649041888
1	4510	167.850685845451	0.475770308938
1	4531	168.279916957926	0.306426976783
1	4574	169.090877275461	0.61476759464
1	4584	169.435108037079	0.131185366064
1	4598	169.978163215864	0.499364298302
1	4619	170.833923829839	0.693472199475
1	4629	170.924363830202	0.032259317371
1	4647	171.517518959662	0.395037000806
1	4654	171.594454057086	0.074569578425
1	4697	173.60877564108	1.788726533935
1	4704	173.628316691489	0.008656769493
1	4718	173.924598767085	0.202683911638
1	4769	175.665037040127	0.623360286094
1	4786	176.28566312869	0.485425585598
1	4805	176.778543532597	0.402256770618
1	4821	177.50715369617	0.575996374288
1	4836	177.697851640666	0.067626424929
1	4850	178.23911595389	0.359015701157
1	4900	179.220319133804	0.749997514757
1	4910	179.259835412076	0.012016969529
1	4934	180.411985187031	0.083239406244
1	4975	181.756275218186	1.298832687253
1	4997	182.913549284607	0.467444103174
1	5028	183.907990572149	0.643574498248
1	5063	184.895247846208	0.814031787556
1	5105	186.279165253799	1.191757422851
1	5150	187.818492407948	1.286591652111
1	5200	189.56156261579	1.44512690363
1	5210	189.988672469491	0.288803546982
1	5217	190.192234309958	0.019544059336
1	5254	191.658327534927	1.232543010587
1	5313	192.61470234906	0.935220614681
1	5348	193.610937620498	0.832233339951
1	5433	195.528165679096	1.870258587214
1	5453	195.824832793492	0.248092556534
1	5473	196.095584664149	0.115190921122
1	5509	197.619778328946	0.19945283276
1	5523	197.969904219595	0.093179269643
1	5546	199.639553445111	0.179383709683
1	5578	201.227176879498	0.393479715889
1	5596	202.213015418774	0.434568393829
1	5632	202.588113155024	0.330757348303
1	5665	203.826608361961	0.179647544504
1	5672	204.387204323115	0.366996266093
1	5721	206.330023711993	0.107844162572
1	5757	207.480246039561	0.600789877388
1	5830	209.818494515404	0.892634697599
1	5858	211.183911651632	0.577592262578
1	5875	212.127667297561	0.6099400711
1	5889	212.928888983552	0.135825082003
1	5917	214.944373918138	0.259009733164
1	5931	215.598429161273	0.059482248171
1	5974	217.548594491224	0.732693301281
1	5988	218.165342423475	0.489534424267
1	6004	218.820566740031	0.647331844336
1	6019	219.121680560176	0.122604943219
1	6048	219.784948737696	0.538861360333
1	6086	221.313091280722	0.857152347288
1	6113	222.245593684226	0.316465405803
1	6158	224.009556820356	0.98371980046
1	6169	224.420255054415	0.157205111604
1	6209	225.255038187996	0.770340505179
1	6235	226.773663322246	0.152085574898
1	6246	227.232196226328	0.108977356898
1	6268	227.815610174597	0.314602423267
1	6278	228.03443379012	0.128141972743
1	6313	229.351803810355	0.328923987018
1	6320	229.623002289662	0.253120303386
1	6344	230.528011379388	0.868754818564
1	6379	232.360803986794	0.507065484023
1	6419	234.412469690785	1.240420526653
1	6467	236.002354793453	0.979032231356
1	6509	237.4456250738	0.269742458136
1	6572	239.609642962836	1.909658786869
1	6596	240.287635830276	0.307469612327
1	6620	241.515517669971	0.258967855831
1	6647	242.604978773644	0.471872602375
1	6687	244.473572868955	0.039761555735
1	6694	244.740311865083	0.120196990299
1	6769	245.980413287551	1.18386978845
1	6806	248.118321108257	0.07603681301
1	6817	248.330611742793	0.032542859388
1	6831	248.474905469295	0.006402233071
1	6872	249.878821996233	0.458096691393
1	6897	251.278635557606	1.28671717717
1	6932	252.130883430906	0.610183207574
1	6946	253.113039597119	0.066187393242
1	6978	254.333851019072	1.037002216895
1	7002	255.028628282297	0.241222758815
1	7041	256.993700451751	0.432280736434
1	7062	257.575094803011	0.388157438771
1	7072	258.246375873109	0.332648780345
1	7093	259.067882391562	0.361622061926
1	7100	259.644823704356	0.096754987812
1	7111	259.737502203523	0.087270507017
1	7143	260.649448773975	0.68565807941
1	7170	261.993271523771	0.222689757457
1	7184	262.698239242593	0.242495935264
1	7191	262.999900762218	0.299330067454
1	7205	263.470295184667	0.124189968313
1	7212	263.552760479589	0.069286566414
1	7226	263.929289389808	0.372099512352
1	7247	264.643100301027	0.522309352589
1	7282	266.389400500233	0.718388891842
1	7313	268.041910303504	0.608758584367
1	7341	269.369012146803	0.27385052374
1	7362	270.331792070113	0.804948703524
1	7380	270.668261281332	0.035515628551
1	7398	271.13273136193	0.370152079313
1	7438	272.301870475314	1.105979195271
1	7511	273.436686988591	1.043974831215
1	7534	273.940274659913	0.369551299004
1	7559	275.513338908443	0.55198636982
1	7576	276.401319543201	0.597302368884
1	7590	277.338281111403	0.770738382583
1	7605	277.566518053893	0.146223628077
1	7615	277.732363282987	0.036177279023
1	7622	278.4196234288	0.521007568212
1	7629	278.799217405797	0.02912314303
1	7636	279.043738951275	0.065131669494
1	7699	280.981796220921	1.33797568486
1	7716	281.802729557338	0.302083291945
1	7733	282.506893446097	0.514888443771
1	7775	283.662453161278	0.859150130829
1	7836	287.214878038936	1.444994134049
1	7909	290.454550923126	0.225596086516
1	7933	291.098590432098	0.524202019696
1	7950	292.572326142077	0.730427893854
1	8014	294.811816672012	2.116432631619
1	8034	295.541352843509	0.3028917868
1	8059	297.449200185681	0.347343604356
1	8066	297.954349495816	0.168093660362
1	8073	298.376950134057	0.359096709832
1	8090	299.405494292083	0.804723860353
1	8118	301.109037316375	0.496017840578
1	8133	302.227640921479	0.58630189761
1	8147	302.936896526624	0.181919111813
1	8168	303.311091714545	0.226142319995
1	8203	304.769978880296	0.999198756331
1	8271	307.15008372865	2.071679383581
1	8285	307.480814337788	0.033979760004
1	8322	308.814734243281	1.295389018472
1	8371	310.324418429982	1.466482856153
1	8426	311.553878100949	0.674186092846
1	8486	314.674688755862	1.695348703909
1	8515	316.093954220554	0.159870693701
1	8554	317.550335509892	0.330813276771
1	8581	318.95130316087	0.312819420144
1	8591	319.125792356036	0.004835088909
1	8598	319.266874216908	0.051520532954
1	8609	319.38472716622	0.030843395919
1	8623	319.735091035005	0.108233794988
1	8637	319.978001094199	0.13981218629
1	8710	322.039842807421	1.711903442879
1	8742	322.743869226363	0.636301297424
1	8774	324.225577016409	0.641029610916
1	8803	324.730824878351	0.446592519639
1	8820	325.627768083526	0.17744472384
1	8890	327.729615310737	1.989391983434
1	8907	327.8649929975	0.130485868828
1	8930	329.113068509001	1.181552771363
1	8944	329.644189260294	0.312720373263
1	9028	331.388565807167	1.455936486683
1	9039	331.565786612353	0.002218340163
1	9064	332.543471124943	0.566090004546
1	9092	333.404277040355	0.742829089268
1	9166	335.471691034935	1.726701722898
1	9193	336.251001185458	0.318567653514
1	9204	336.771659900391	0.316417546189
1	9214	337.456060386394	0.050113177596
1	9239	338.048763653386	0.575639806633
1	9246	338.516736625576	0.072078950345
1	9316	340.462985540056	1.787392924643
1	9334	340.82859690778	0.107110646333
1	9382	343.523343992571	0.245510134951
1	9400	344.105104517156	0.24585213251
1	9418	344.312224450647	0.076236933699
1	9425	344.393518623558	0.01325278049
1	9439	344.553911761102	0.158901420386
1	9449	344.873310222623	0.017129365083
1	9487	345.967373610833	1.026026541165
1	9538	346.981781370181	0.514415045552
1	9585	348.398897858614	1.139659402091
1	9599	348.962847430885	0.002140077324
1	9630	349.714070027387	0.712837987453
1	9641	350.321494762859	0.082802862012
1	9673	351.566856378085	0.872409025091
1	9687	352.091968670288	0.404572188809
1	9697	352.241314634849	0.043955556383
1	9746	354.358330882778	1.61071040972
1	9757	354.802056617554	0.307206453062
1	9768	355.047207830846	0.184714854081
1	9789	355.430315491931	0.372461950962
1	9809	356.42267380888	0.680724406081
1	9837	357.422339972178	0.0117324498
1	9851	358.157664529804	0.073501501672
1	9872	358.858219886174	0.125792119479
1	9900	360.071142649355	0.215488480538
1	9928	361.151165110595	0.720919871103
1	9939	361.517732599082	0.224575200675
1	9966	362.765254049076	0.698397441845
1	9980	363.390661116056	0.459671716677
1	10019	364.428622466797	0.989378172152
1	10030	364.651480048409	0.010374946544
1	10037	364.832173170134	0.032130389361
1	10062	365.648480755231	0.762704584618
1	10110	366.484989344577	0.834465138084
1	10159	368.491189960972	0.616519338176
1	10230	370.357129690575	1.602671069402
1	10251	370.477331531474	0.054018874292
1	10271	371.504540285602	0.246094336542
1	10303	372.757076083063	0.829915502554
1	10324	373.497808103766	0.026566916563
1	10344	373.802780752607	0.244318585123
1	10471	378.912300414322	3.723917532203
1	10495	380.324168424847	0.019344737101
1	10545	381.92548852251	0.804544858429
1	10558	382.518088374714	0.120257288821
1	10569	383.186829799464	0.52461191236
1	10596	383.534074413463	0.334030312446
1	10626	384.473434267068	0.799071186934
1	10652	385.428127596921	0.360669124854
1	10663	385.600716451761	0.009997834814
1	10677	386.773136017224	0.005015998839
1	10713	387.498953605938	0.270688677308
1	10748	388.244943394367	0.589792525693
1	10775	388.988357369636	0.039837768122
1	10785	389.198102083535	0.183229094942
1	10800	389.646045508916	0.137448505864
1	10833	390.742532947854	1.019785711549
1	10847	391.02680259252	0.198938752653
1	10891	392.292632188387	0.29725036936
1	10919	392.728537436703	0.419830394037
1	10929	393.117432943655	0.263792873386
1	10943	393.9736091565	0.042343371719
1	10975	394.899029922421	0.837435104198
1	10985	395.167012894554	0.20023574753
1	11006	396.115626900482	0.115046738113
1	11045	396.909676624378	0.563532071382
1	11056	397.060735074116	0.088492541093
1	11080	397.624372940874	0.272664794422
1	11094	398.192647522298	0.537900089783
1	11153	399.012826739391	0.656170665302
1	11160	399.072939381945	0.014997217776
1	11202	401.493376511496	1.370204426828
1	11209	401.893365607052	0.257485612501
1	11230	403.224498136427	0.48029537601
1	11256	403.86321806187	0.575963585591
1	11269	404.287369058612	0.14278606169
1	11290	404.922505772917	0.504216810514
1	11311	405.39235082056	0.45309757576
1	11321	405.724921309959	0.320884785369
1	11342	406.27064705324	0.481509798841
1	11381	407.672217179242	0.714736907285
1	11388	408.257824251169	0.298092486484
1	11415	409.353227939855	0.734149657967
1	11454	411.044915738522	1.45536575569
1	11500	412.584794761283	1.254152945808
1	11532	413.286403881463	0.63195517192
1	11563	413.824008345047	0.367715902326
1	11587	415.50445796014	0.143333933762
1	11594	415.604809360828	0.028597688838
1	11601	416.095486720122	0.159608332161
1	11630	417.007257561411	0.517461140213
1	11665	418.629331996889	0.438004283945
1	11711	419.580754544502	0.842851776643
1	11731	420.109036771078	0.051919398739
1	11762	421.45411561673	0.117604696775
1	11787	423.177271115156	0.472374388343
1	11822	423.808688742208	0.415839095662
1	11839	424.120945793758	0.058169726141
1	11846	424.327113341647	0.176171242947
1	11875	425.432552566426	1.025078484047
1	11937	427.452583751781	1.857210047982
1	11958	428.507004570455	0.03966428212
1	12001	430.053451280043	0.519513348873
1	12049	431.951564822907	1.784177267971
1	12137	434.294331970719	2.086227944448
1	12172	435.341229119387	0.558608982086
1	12179	435.580314393405	0.065564525435
1	12197	436.212810938864	0.094635251465
1	12221	438.100383231268	0.4578641447
1	12270	439.362730584426	1.041057183338
1	12294	440.513535275811	0.602616902034
1	12305	441.045301474655	0.004057355684
1	12323	441.505249217104	0.39478300248
1	12367	442.869254368097	1.292898114403
1	12381	443.462872706772	0.384002379776
1	12396	443.89341469419	0.174367154908
1	12410	444.492842849778	0.158374093606
1	12444	445.804028462905	0.550870164211
1	12491	446.842356832982	0.834884237247
1	12501	447.278406290909	0.178085377151
1	12526	448.206842417768	0.698280774543
1	12536	448.312436304418	0.035232831014
1	12558	448.852702827655	0.482269905969
1	12620	450.480583225433	1.335975218503
1	12658	451.726652871474	0.726536205524
1	12718	452.998126302414	1.236291014294
1	12761	454.536790022002	0.417802499969
1	12812	456.31456826391	0.017078841882
1	12819	456.413396233045	0.01612458676
1	12843	457.622162803557	0.245404964105
1	12889	459.279558945847	1.062517461457
1	12904	460.143761963801	0.136577542332
1	12976	464.555477771307	3.772277502219
1	13013	465.554833412225	0.729660607474
1	13020	465.781184294143	0.106606179023
1	13030	466.253175919751	0.048868448327
1	13060	467.293806026041	0.896789556703
1	13074	467.718762559303	0.086250421103
1	13113	468.667847538675	0.606456864489
1	13141	469.513887447016	0.791258974016
1	13148	469.711176657341	0.008206793722
1	13176	471.91225544775	0.573743027506
1	13183	472.27140206872	0.25064021314
1	13261	473.672346503984	1.307883599888
1	13303	474.907409504743	1.020560125086
1	13335	475.377739184443	0.290990611401
1	13358	476.594144133418	0.07856110104
1	13368	476.858933839639	0.219912007976
1	13397	477.784417497017	0.369322220098
1	13414	478.259461258903	0.440011893801
1	13428	478.801142467773	0.306719232197
1	13460	479.793683818626	0.627327662036
1	13508	481.160825971723	0.939992212026
1	13522	481.932646878035	0.269440912123
1	13540	482.560219207044	0.19735698876
1	13558	483.47220261211	0.254437202863
1	13575	484.286978788054	0.629873830396
1	13600	485.516854569325	1.066616407224
1	13624	486.005158662339	0.334390726733
1	13663	487.847333637924	1.063164618895
1	13673	488.023118253046	0.110898024406
1	13698	488.90138470517	0.199806812875
1	13725	489.706874432756	0.212110206952
1	13744	490.79357448877	0.789313096963
1	13774	491.886765057504	0.274154612809
1	13823	494.177204716558	0.125007463812
1	13841	496.072211299293	0.471617341678
1	13848	496.145105993612	0.01117144041
1	13880	498.099644658632	0.4834615416
1	13912	499.502380696426	1.033490652397
1	13960	501.085468651478	0.315720220924
1	13971	501.189604994456	0.034721134818
1	13981	501.618018468184	0.410475615391
1	14016	503.671592732722	1.377618935314
1	14051	505.14798548077	0.628184370757
1	14065	505.477565378131	0.08698558787
1	14111	506.90073790366	1.397479310893
1	14142	507.768489424776	0.672661149067
1	14202	511.275390346453	2.332425381011
1	14233	512.858192365432	0.440293654254
1	14290	515.765280837789	1.678312674566
1	14317	516.99712744148	0.089236614904
1	14324	517.069672562371	0.070299671778
1	14338	518.106576467636	0.719527399716
1	14352	518.99776046532	0.476889358294
1	14373	520.184475166655	0.010112233274
1	14394	520.683648383999	0.45464359978
1	14465	523.375658850592	2.137094588868
1	14476	523.491548701599	0.069234779229
1	14492	524.19841860785	0.539586315264
1	14509	524.925566307004	0.276646023591
1	14548	528.131792552224	0.04115162799
1	14566	528.962018480424	0.323412734005
1	14601	529.920822817183	0.459518043062
1	14646	531.611483380075	1.533043167457
1	14664	532.21018973175	0.453419928946
1	14674	532.407631503358	0.04689693858
1	14688	532.744766682843	0.091278621772
1	14695	533.003838561885	0.136983456207
1	14717	533.551437618861	0.427208669983
1	14730	533.75048528806	0.038124515239
1	14740	534.362054069063	0.437952576176
1	14769	534.92482936248	0.498278706677
1	14786	535.256484819347	0.034126105765
1	14804	535.545944787884	0.140016969811
1	14839	537.478243805945	1.673646640584
1	14875	538.432273043672	0.165793899668
1	14903	539.242026719569	0.153907914962
1	14920	540.018991875861	0.744791282552
1	14962	541.053721751334	0.54186475587
1	14997	542.384940452907	0.657930415487
1	15043	543.745763312536	1.055985761814
1	15066	544.313733736074	0.162689746695
1	15105	545.782003883556	1.050698928833
1	15116	546.425491790598	0.246997530829
1	15123	546.64695167882	0.209086586282
1	15175	549.303728039531	2.469788907307
1	15199	549.998956604588	0.179254711279
1	15220	550.702314807984	0.681104020145
1	15276	551.73151188369	0.900500068042
1	15293	553.105509622742	0.801357055257
1	15326	553.550441390949	0.396888156174
1	15374	555.039235641853	0.837878599106
1	15406	557.033564578228	1.395130015952
1	15416	557.453715739737	0.272306546198
1	15437	558.583166947424	0.397589570463
1	15444	559.779820487177	0.004670761873
1	15472	560.410184508163	0.541451049949
1	15496	561.463088655439	0.938921033074
1	15536	564.007473249335	1.819747289026
1	15549	564.4348577837	0.033869795365
1	15567	564.832160279351	0.218116723879
1	15574	565.170475687743	0.299541891312
1	15581	565.332408529777	0.040845649268
1	15588	565.388201476555	0.040333256015
1	15612	565.976996604829	0.238729653713
1	15668	567.324547184906	1.119746062826
1	15692	568.785479782411	0.859100133433
1	15731	570.730026560233	1.650252989157
1	15756	571.587026501504	0.183405129956
1	15808	574.640829279001	0.397384427289
1	15857	576.569316472976	1.159082340913
1	15931	580.195573516175	2.638987181266
1	15941	580.308649881574	0.048201498416
1	15965	582.020152343369	0.448252535491
1	15976	582.674599289986	0.397889236991
1	15986	582.735846065601	0.046667792885
1	15997	582.989902057948	0.210234756658
1	16011	584.177185816506	1.005958882247
1	16049	584.850312327573	0.654117568777
1	16060	585.648090193329	0.28113057035
1	16070	585.795435388851	0.10734972022
1	16081	587.818817466167	0.570881961065
1	16095	588.198992063018	0.214242357978
1	16134	589.906593292248	0.514688634692
1	16172	590.787277430126	0.851300401021
1	16218	592.520895167068	1.509787701841
1	16246	594.66902895378	0.967289271639
1	16288	595.42515733349	0.569284928743
1	16295	595.707570465856	0.056810349789
1	16365	597.903320221074	1.896610558342
1	16417	599.651249250599	1.603566293735
1	16481	600.978274564211	1.214155691664
1	16508	602.935413647026	0.306444738414
1	16526	603.516112716261	0.339803785265
1	16564	605.207187991656	1.07445800366
1	16575	605.409631563354	0.17918347648
1	16603	606.278906428834	0.628996056422
1	16698	608.768821786918	2.474739552766
1	16725	609.634593714188	0.332536401084
1	16764	611.476736431817	1.183774720446
1	16796	612.191134215901	0.6571723832
1	16845	613.350870122121	0.504348646992
1	16873	614.42813754728	0.569814794015
1	16886	614.837132048439	0.194903950668
1	16943	616.939366816239	1.325049262675
1	16957	617.126217064988	0.160476394033
1	16970	617.632019682403	0.069422113092
1	16999	618.356533147092	0.206128921955
1	17040	619.254065059747	0.868557452771
1	17068	620.864095833161	0.106429456863
1	17097	622.253692829825	1.036653613481
1	17141	623.516120157637	1.003281248074
1	17180	627.088788636838	0.860317876831
1	17204	628.179319570557	0.121872334682
1	17222	628.845906472753	0.3250621038
1	17261	630.683955684378	0.67247751793
1	17314	631.768181243148	0.535016877563
1	17355	633.714987669603	0.60257312396
1	17362	633.839731288376	0.09679317389
1	17372	634.183271950775	0.212812143045
1	17390	635.041640697179	0.451907857955
1	17411	635.527969126346	0.169982792342
1	17425	637.329676165535	0.015635275132
1	17446	638.356337305323	0.024146430009
1	17453	639.152172731578	0.0055572566
1	17485	640.052030862053	0.61970118171
1	17492	640.130858037703	0.041533527094
1	17499	640.212580923148	0.034773729591
1	17516	640.842130396831	0.000390157015
1	17527	641.032838998883	0.116724979411
1	17542	641.154145990723	0.095830303407
1	17563	641.518329895865	0.343439456027
1	17636	642.991050612894	1.451350077163
1	17653	643.569486788463	0.509498775153
1	17685	644.421000457582	0.702092034234
1	17712	644.838627462741	0.380929914821
1	17744	646.620386267633	0.297325483871
1	17786	647.433877176199	0.616966886035
1	17814	647.997061785497	0.321358905846
1	17845	650.355963270959	0.03570281694
1	17859	650.615440318596	0.02627192987
1	17895	651.42105578585	0.750996911678
1	17902	651.462910415157	0.035057872721
1	17925	651.941495447411	0.46014767942
1	17946	652.269620017083	0.129170966419
1	17961	652.967554842774	0.192696392516
1	17989	653.498713209819	0.310854138453
1	18025	654.514083410232	0.862822819023
1	18073	656.300518876239	1.633990880483
1	18099	657.047621868375	0.577634562753
1	18116	657.403739468728	0.302609238665
1	18146	658.950659139623	0.327954348702
1	18170	660.103038146631	0.15570656293
1	18214	662.111540885593	1.065419298726
1	18231	662.367789192138	0.201698941751
1	18272	664.514037121991	0.548111695436
1	18289	665.139675685942	0.392837660254
1	18307	666.070794698357	0.152330576447
1	18322	666.711887349206	0.282504927268
1	18354	668.132963403743	1.17165504023
1	18406	670.160879668903	0.347199820107
1	18444	671.84256525057	0.808751580782
1	18461	672.502756918842	0.293693338591
1	18482	673.423457457906	0.265917326609
1	18518	674.465440731259	0.968674537563
1	18561	676.132441996692	0.753315157711
1	18581	676.854298424712	0.221151230074
1	18613	677.582453758087	0.656943595303
1	18623	677.736044142414	0.121226957067
1	18640	678.175638445001	0.148786165936
1	18657	678.637330597358	0.18488833858
1	18679	679.277151428741	0.119034495849
1	18686	679.435522691408	0.073189312644
1	18706	680.37511676174	0.652823435642
1	18730	681.083164364942	0.473518756328
1	18755	682.846842913423	1.353977694521
1	18796	683.715915665898	0.839495350169
1	18816	684.175837456218	0.148027570829
1	18826	684.348410384959	0.101798624958
1	18836	684.871770747676	0.420269495507
1	18900	686.909294513538	1.889824939993
1	18966	689.306640717931	2.149805836079
1	18983	689.765316110066	0.185367074069
1	19011	690.413743660937	0.464912101947
1	19028	690.961768398137	0.069280370068
1	19039	691.601023106519	0.011155879838
1	19059	692.383465705565	0.158147975509
1	19092	693.921494141086	0.809253638122
1	19151	697.161581034964	1.515972154778
1	19172	697.634028478109	0.109294925873
1	19193	698.442768319847	0.25807070714
1	19227	700.076183749131	0.929834006957
1	19252	701.812838293337	0.519014884827
1	19273	702.223279696588	0.08386728265
1	19301	703.187907619523	0.594839472603
1	19340	704.221095448311	0.323465772682
1	19382	705.560541980799	0.829725724618
1	19392	705.791707469242	0.0651049473
1	19427	708.03900830979	1.287319690899
1	19459	708.817478986787	0.555470395939
1	19501	710.075556902911	0.739988442837
1	19540	711.046097832571	0.285500921922
1	19560	711.616620506626	0.030836997173
1	19570	712.236577505564	0.233554996449
1	19581	712.547058777179	0.160496189238
1	19652	714.526447805864	1.978605066468
1	19700	715.524434198232	0.719637956315
1	19714	716.103734621812	0.08206369748
1	19739	717.344765719199	0.583633612117
1	19763	718.8830800369	0.206913266136
1	19770	718.972157311482	0.070888584765
1	19777	719.127603916805	0.066688397325
1	19816	720.367026173387	1.101596275578
1	19850	722.261271500316	1.214696976357
1	19868	722.993123200131	0.12191311265
1	19882	723.895078732389	0.009456873815
1	19889	724.714111111863	0.169764555407
1	19906	726.275943776409	0.894559666336
1	19939	727.256288872803	0.314023514753
1	19950	727.37030893498	0.086805595282
1	19994	728.852498833204	1.328121476238
1	20008	729.557511072211	0.036902211165
1	20036	731.063849403738	1.377242031267
1	20043	731.34096420947	0.097970077626
1	20053	731.86835463988	0.481788613012
1	20068	732.127324170073	0.13876023336
1	20092	733.080202067278	0.66856201983
1	20134	734.867564932842	0.384096474604
1	20141	735.156258968438	0.01518462302
1	20190	736.176230906832	0.856928472536
1	20226	737.352839009509	0.789324563756
1	20246	738.532296827772	0.077761769852
1	20253	738.690154698568	0.015763689158
1	20267	739.168957155193	0.010150530037
1	20313	741.048963321539	0.503428342395
1	20391	744.465400302144	2.092447422276
1	20428	746.368314133748	0.552363920161
1	20453	748.125490475805	0.238916545018
1	20473	749.157155252449	0.056239187845
1	20530	751.650192241371	2.321494879149
1	20551	752.950631074412	0.131733735464
1	20575	753.806863043181	0.226228649532
1	20600	754.655431017717	0.192253588797
1	20650	756.194486651168	1.27741146773
1	20667	756.446141647802	0.142178827965
1	20694	757.194394461104	0.021663880511
1	20733	758.572093438821	1.166308544608
1	20775	760.007913116073	1.253837283019
1	20863	762.171513982513	1.98789095685
1	20890	763.627045504409	0.01951852567
1	20925	765.506075722914	1.867550156333
1	20953	766.448970398383	0.49759878203
1	20978	766.920534282677	0.255708769696
1	20985	767.665086862226	0.160100304242
1	20995	767.796528168059	0.005540694289
1	21017	768.331508620741	0.467807070624
1	21044	769.422013143001	0.794747245578
1	21129	771.595934133852	1.880994306343
1	21149	772.049636533052	0.056048972038
1	21163	772.28653667438	0.189299015848
1	21177	772.520691298495	0.215963615986
1	21191	773.554282096141	0.008396849861
1	21206	773.989563022412	0.202076018115
1	21223	774.628896484897	0.314282413159
1	21240	775.351726393337	0.42812453925
1	21247	775.633824471266	0.161322547782
1	21279	776.884756098282	1.123624878747
1	21310	777.933773952347	0.431897560783
1	21343	779.108147679904	0.941552143009
1	21368	779.699393543058	0.511036899976
1	21378	779.817167379625	0.021639008838
1	21392	780.016304334423	0.08782399764
1	21422	780.841119144646	0.048691586725
1	21429	780.987006305104	0.090508450878
1	21450	782.553346994362	0.905952019746
1	21485	783.72417723611	0.686267544871
1	21503	784.323869072127	0.585247954056
1	21510	784.48921962272	0.143097817746
1	21527	785.174863096565	0.624695115804
1	21565	786.925790853264	0.713689685268
1	21598	787.7150746027	0.446263971712
1	21649	789.915084612265	1.480364126911
1	21731	791.80520867081	1.682031496406
1	21745	792.234159981564	0.018923424254
1	21769	793.201995811599	0.558435906985
1	21786	793.773527445364	0.275573852649
1	21797	794.031557654018	0.134115256475
1	21814	794.833365149673	0.652328386438
1	21825	795.071117399054	0.075223133819
1	21867	796.097257796505	0.69921916629
1	21877	796.450736728406	0.119003091144
1	21891	797.095346948049	0.600148922594
1	21922	798.754074329787	1.125130790377
1	21933	799.73348219862	0.298059162188
1	21954	800.23766887657	0.012179165258
1	21968	800.643538264496	0.012799339408
1	21996	801.82140935447	1.013602865098
1	22010	802.292253856478	0.175082661658
1	22017	802.655168898455	0.2426790412
1	22024	802.779794397856	0.092216200745
1	22035	802.948916657962	0.116102023159
1	22070	804.65830802566	1.382237264547
1	22101	807.182180846926	0.904489988018
1	22118	807.809880971596	0.240961241269
1	22150	809.470822990657	1.22500747098
1	22164	809.720482302515	0.084745534831
1	22182	810.03540847667	0.155398919905
1	22195	810.392256663436	0.232119212108
1	22246	812.258581302557	1.345810356941
1	22315	813.910256612822	1.608120114428
1	22359	814.849938472155	0.939681859333
1	22378	815.425921702346	0.311241667536
1	22442	817.962268785335	1.17078655512
1	22462	818.619439099202	0.046746210004
1	22469	818.74932494201	0.071978658589
1	22500	819.347627435547	0.588000754954
1	22589	820.73620581143	1.18973794859
1	22655	823.105434536508	1.333826307323
1	22686	823.776391565691	0.657003113872
1	22706	824.894986957449	0.589168672393
1	22728	826.085337402273	0.432718124133
1	22742	826.521343208959	0.224274887705
1	22759	827.372553532858	0.248755353049
1	22769	828.088809280425	0.515678573158
1	22794	829.476845199311	0.181409117086
1	22826	831.545859941834	0.590529169405
1	22846	832.296858499572	0.481772387627
1	22864	832.791396130331	0.009846840124
1	22882	833.675407439117	0.454856953942
1	22889	833.704275490708	0.006113011543
1	22927	835.496747311173	0.96022949725
1	22951	836.426541950379	0.566771701519
1	22969	837.094982597226	0.125068136445
1	22997	838.398693161715	0.683559675661
1	23007	839.6941753932	0.917716642866
1	23021	840.237118889743	0.241686796744
1	23046	841.489300097534	1.203444864971
1	23057	841.886535406645	0.309763629494
1	23070	842.50248800107	0.472395992184
1	23102	843.335914845375	0.376497797411
1	23127	844.318670052286	0.450584417453
1	23159	845.165346691152	0.125679020303
1	23196	847.321969905378	1.611743577928
1	23207	848.729976207393	1.083415567799
1	23221	848.995834628742	0.110252774184
1	23232	849.368189949247	0.115446698241
1	23239	849.498466636722	0.086710889359
1	23282	850.40504261747	0.761191878242
1	23289	850.569792488399	0.125124056835
1	23341	851.833842187803	1.120951070923
1	23357	852.083348898256	0.129547749128
1	23401	852.626508062057	0.447302597603
1	23449	854.9686908886	0.67581959615
1	23509	855.785391956579	0.777200620818
1	23536	856.867430913869	0.013243388624
1	23554	857.260201406881	0.322196493555
1	23574	858.497367110428	0.940795247103
1	23620	859.634110871933	0.730401323056
1	23675	860.857808620128	1.001093684997
1	23743	862.114993544726	1.163609278325
1	23760	863.150367772078	0.651905305045
1	23799	863.806283119502	0.537113168077
1	23830	864.452689544805	0.464129221265
1	23840	864.686369648839	0.164268269988
1	23851	865.015006060041	0.092031903769
1	23858	865.526723766421	0.17241388187
1	23865	865.634525140493	0.073820563174
1	23879	866.691982339328	0.944490293601
1	23907	868.726628989239	0.082982421599
1	23939	869.474564244755	0.664745595414
1	23970	870.675008466621	0.605552263344
1	24075	872.33590739248	1.283846494933
1	24113	874.690785218603	0.317541532853
1	24124	875.86312768309	0.27146170549
1	24135	876.055232812512	0.039670190659
1	24159	876.416755877467	0.223184292414
1	24180	877.408702705768	0.008975895346
1	24224	879.167269041578	1.716349451093
1	24247	879.522311697122	0.351578895683
1	24261	879.870053904369	0.139730603274
1	24335	881.596467719113	1.546089817975
1	24348	882.093292726445	0.243076012937
1	24366	883.423049715529	1.199437849511
1	24383	884.196792453248	0.39547617449
1	24408	886.165798624178	0.333712007615
1	24418	886.606194890649	0.26638645981
1	24461	888.094742761541	0.817747359071
1	24477	888.444868219125	0.346851815311
1	24495	890.48629750479	0.572323764264
1	24555	892.239973888805	1.698149324644
1	24590	893.029909991234	0.487611737304
1	24612	893.59617667079	0.456996014296
1	24643	894.251435204393	0.450914200256
1	24654	894.363784521527	0.09349294443
1	24671	895.235272238848	0.734772971846
1	24696	896.187610316483	0.621051167317
1	24729	897.158228662862	0.188832530742
1	24740	897.642052330089	0.150947010565
1	24765	898.629327993626	0.940810722762
1	24814	900.106351168025	1.469205360854
1	24824	900.422985298801	0.129374464008
1	24845	901.439037827614	0.243748950621
1	24856	901.900783197268	0.158160015484
1	24866	902.379650347676	0.252610867475
1	24884	903.582858279222	0.906763909812
1	24952	905.214045696598	1.050402088109
1	24985	906.746689221567	0.728539752193
1	24995	907.044181635816	0.246485179796
1	25032	908.523591270048	0.642147166599
1	25062	909.457845210628	0.47306068885
1	25079	910.439165371565	0.235029290511
1	25094	911.338939145123	0.108630561754
1	25167	913.23299130084	1.40417932241
1	25188	914.513698238588	1.152360269626
1	25198	914.768047351286	0.254101598263
1	25227	915.714738536504	0.557837398526
1	25286	916.973417955132	1.148389102897
1	25307	918.142327689946	0.089624302849
1	25336	919.524051415566	1.294939529966
1	25343	919.706902784403	0.095510174138
1	25366	920.353238762629	0.293195627309
1	25380	920.762901536491	0.220616952007
1	25395	921.641425311657	0.181726685506
1	25451	922.459083675097	0.769798655513
1	25472	923.009182001114	0.427494876574
1	25482	923.526622479959	0.5079454085
1	25503	923.832406006893	0.009582486557
1	25563	926.764988274012	2.329040724838
1	25610	928.296834295061	0.487559024611
1	25626	929.091953930297	0.568991779076
1	25636	929.597563912256	0.022432190124
1	25643	929.938875549761	0.322998563774
1	25661	930.824540320417	0.273149873919
1	25678	932.033415930634	0.418921181632
1	25720	933.906874246262	0.455401067024
1	25741	934.597254584429	0.125796293014
1	25759	934.8747043466	0.216967622962
1	25773	935.294758598003	0.387729721488
1	25814	936.976050558078	1.336761507342
1	25862	939.018242676751	1.532943786433
1	25889	940.012053128239	0.949444912491
1	25905	940.669452675915	0.283852028584
1	25920	941.43776276862	0.2567706473
1	25954	942.600857632339	0.631892657398
1	25965	943.156626428139	0.026597673765
1	25983	943.757144149672	0.441987937339
1	26007	945.238647604944	1.422193444189
1	26071	947.609781868249	1.773392343246
1	26084	947.927085984022	0.031784597229
1	26101	948.634035085583	0.576885449656
1	26112	948.997764142722	0.031924472852
1	26126	949.498632275318	0.23931541369
1	26143	949.996205713799	0.448936343014
1	26154	950.48349706031	0.236949495029
1	26168	950.872205704109	0.365425254768
1	26256	953.71716558766	1.616813730781
1	26326	955.999234385677	2.139392375653
1	26343	957.116637985535	0.551746528108
1	26360	958.306045158421	0.549923486914
1	26386	959.280605706736	0.466121211365
1	26396	959.47465679026	0.16405029315
1	26424	961.29568116093	0.386786416981
1	26431	961.460053790974	0.064420211439
1	26451	962.596130207356	0.473221179244
1	26484	963.746732361529	0.28651328141
1	26504	964.937765518351	1.129777423815
1	26525	965.455882708284	0.263101262221
1	26549	966.785220706392	0.543897527486
1	26564	967.51485193432	0.470658786105
1	26574	968.018790160105	0.021137366771
1	26625	969.696879437966	0.837484083281
1	26654	970.869939904872	0.78901276979
1	26665	971.284921127347	0.066208141082
1	26679	971.359989434088	0.061277129958
1	26743	974.011913618898	1.416181997737
1	26757	974.193124672277	0.135952632268
1	26801	975.670141668973	1.091588683439
1	26812	975.940927740573	0.050929282331
1	26829	977.304319348773	0.510377699707
1	26901	979.205316513022	1.391305475568
1	26918	979.813433388731	0.101921720366
1	26932	980.085295876601	0.15227696791
1	26939	980.109350668337	0.022085865568
1	26970	980.827063323646	0.668802054098
1	26991	981.278944188645	0.416666259356
1	27067	982.663272411767	1.218245691177
1	27086	983.675590186363	0.755137722056
1	27120	984.491039124066	0.181917914669
1	27127	984.619638542985	0.003017539265
1	27141	984.979278813916	0.252487798627
1	27155	985.448699276937	0.306111767142
1	27177	986.163274668888	0.703902633206
1	27356	989.867401773185	3.533500411888
1	27369	990.197056277377	0.048605607332
1	27397	991.555710153791	1.164823167718
1	27422	992.387047819482	0.808279104691
1	27439	993.0393571885	0.569710251208
1	27460	993.689949151148	0.313229423026
1	27474	994.068665871348	0.315470006612
1	27489	994.310316014595	0.090317020872
1	27510	994.671500302516	0.270064864516
1	27517	994.798855616804	0.046905754416
1	27530	995.235406510552	0.16981486953
1	27547	995.781276232335	0.376220950628
1	27558	996.054295621055	0.146505417455
1	27589	997.392799421905	0.274268098804
1	27624	998.137568267351	0.384473107447
1	27648	998.911966404739	0.447861999019
1	27680	999.775300160314	0.657281175316
1	27709	1000.250258072451	0.441980617777
1	27733	1001.224677872026	0.389513070293
1	27751	1001.629132370732	0.376087004645
1	27768	1002.19458572505	0.42267501927
1	27789	1002.70791612155	0.32601396828
1	27820	1004.082090460884	0.424440624249
1	27849	1005.40249554328	1.208383442069
1	27942	1008.130903146958	2.462287528314
1	27968	1008.837745108265	0.393523392449
1	28013	1011.909206398748	0.159771351509
1	28023	1012.713059674547	0.772716807442
1	28034	1013.249968641276	0.074422487425
1	28055	1013.619438079658	0.179615305605
1	28083	1014.19420050727	0.4768293755
1	28090	1014.424696557748	0.108355777441
1	28114	1016.879847025722	1.114554476959
1	28132	1017.075311920461	0.098249628376
1	28142	1017.292946512612	0.15935555283
1	28166	1017.795224574644	0.274794864734
1	28184	1018.68273138157	0.048394890412
1	28300	1021.96946884722	2.71320085145
1	28314	1022.451383866377	0.444386597452
1	28342	1023.981697818072	1.041855754569
1	28378	1024.807082536309	0.787935827569
1	28430	1025.99301813514	1.150817008431
1	28476	1027.216440516227	0.728766799495
1	28500	1027.652881218449	0.123531711432
1	28524	1028.321525313815	0.185338388645
1	28534	1028.527959253918	0.018937165135
1	28541	1029.143951613934	0.034312359997
1	28559	1030.284072729295	0.777476584957
1	28579	1031.00020587595	0.303025178547
1	28597	1031.329008120312	0.221743026935
1	28675	1033.657755720103	0.785571854761
1	28710	1035.49626823574	0.756401817034
1	28727	1036.000525097166	0.27425944865
1	28752	1036.933890461313	0.452908010784
1	28766	1037.555615238158	0.583663793021
1	28783	1038.193343369519	0.598567296662
1	28800	1038.731210679125	0.09191940097
1	28810	1038.886773666416	0.134500685483
1	28842	1040.426819570872	0.199535918297
1	28878	1041.702540117954	1.005147001195
1	28888	1041.903921784422	0.051255042181
1	28926	1043.123722218934	0.793353101657
1	28947	1043.915723441487	0.474672407162
1	28958	1044.252900237625	0.082531422311
1	29029	1046.873761880486	1.993290982809
1	29104	1048.898318896229	1.644267174074
1	29150	1051.437437201563	1.42796675109
1	29173	1051.646809903143	0.202478512244
1	29200	1052.012369170185	0.145014272477
1	29211	1052.837516444458	0.596319369394
1	29272	1054.1675650011	0.56716150383
1	29311	1055.310069633849	0.963324629277
1	29368	1057.290984265571	1.657144701386
1	29395	1058.375327102573	0.676677099102
1	29409	1058.924318446839	0.133677474992
1	29423	1059.31208617304	0.050122733797
1	29434	1059.665308353748	0.352921267749
1	29480	1059.982182343451	0.236040685618
1	29521	1062.752650695569	0.130527154831
1	29550	1063.482391476984	0.700768216455
1	29568	1063.952492716636	0.210996773336
1	29581	1064.475902974498	0.185776349235
1	29595	1065.090522168803	0.046982372057
1	29619	1067.106650115637	0.10471114898
1	29638	1067.3718224975	0.262289390672
1	29689	1069.618918210867	0.0911512254
1	29759	1072.240569816537	2.264059342773
1	29773	1072.488139011259	0.110180989376
1	29784	1072.845527473851	0.051133794417
1	29791	1072.957598650026	0.004091713369
1	29805	1073.327004580361	0.347257679781
1	29829	1074.290601529797	0.347154713183
1	29860	1075.174369751207	0.738003349422
1	29875	1075.465257429002	0.089360914517
1	29899	1075.953352603774	0.308486135982
1	29920	1076.569872712019	0.327972289675
1	29927	1076.667581872825	0.00486948656
1	29934	1076.756910712639	0.060423038321
1	29945	1076.904874824962	0.106034573977
1	29955	1077.403990010696	0.497723686111
1	29972	1078.850078439105	1.208446304851
1	30004	1080.0138770155	0.976376572215
1	30022	1081.314397235314	0.4694669573
1	30039	1082.939978944093	1.593266669577
1	30057	1083.229930547645	0.224307414136
1	30084	1083.975158373696	0.673732468634
1	30099	1085.016738637884	0.117764512754
1	30109	1085.370768178936	0.263797142883
1	30127	1086.519709726926	0.300454381706
1	30162	1087.615105774785	0.818862203106
1	30197	1088.001887603371	0.24673906177
1	30225	1089.690252187842	0.801142566185
1	30232	1089.849971862214	0.033709715632
1	30253	1090.222521339509	0.279866576496
1	30295	1091.157203040149	0.713465663382
1	30326	1092.462023702547	1.281662494591
1	30333	1092.735346162423	0.081544876668
1	30355	1093.466631404638	0.723564114677
1	30365	1094.158914782742	0.531114038357
1	30382	1095.297732436026	0.166837020588
1	30408	1095.74723289077	0.324815178874
1	30442	1097.872754537922	0.346160916272
1	30449	1098.044698894933	0.009796189802
1	30536	1100.664121768225	2.52081685219
1	30550	1101.414244256686	0.235018333205
1	30561	1101.874402587837	0.349866903771
1	30571	1102.306316017656	0.017381058836
1	30588	1103.675869991928	1.301222311112
1	30664	1105.289386445958	1.223884675381
1	30677	1105.486553058912	0.191292233704
1	30701	1106.280578311546	0.091942106302
1	30718	1107.137983302412	0.477465554157
1	30728	1107.427871036555	0.287163745615
1	30747	1108.47483197711	0.037848950023
1	30760	1108.74627605151	0.117340062783
1	30778	1109.319916713562	0.228312574177
1	30802	1111.332139436413	0.420919525971
1	30838	1112.866821206049	0.930398129048
1	30848	1113.412024719742	0.357399965614
1	30872	1115.050095689696	0.131802193877
1	30938	1118.110484529135	2.744015962597
1	30981	1119.754006421842	0.560282732367
1	31013	1120.234462950944	0.458241815554
1	31032	1120.533717180607	0.174046335071
1	31046	1120.811481996112	0.081000715333
1	31062	1121.162496367129	0.287575598436
1	31085	1121.923955011134	0.199050602978
1	31135	1123.415376203158	1.394907009097
1	31159	1123.789627186465	0.257565104055
1	31187	1125.337120001058	1.536553401633
1	31198	1125.743740294965	0.162062234718
1	31240	1127.292381311877	0.87914247418
1	31285	1128.524668163152	0.52499581666
1	31309	1129.590669123798	0.345308994229
1	31342	1130.789080558298	0.822998673331
1	31369	1131.724128644403	0.028806813678
1	31440	1133.518354812082	1.752222370052
1	31471	1134.284683992366	0.502400719175
1	31517	1135.492718884429	0.938451373372
1	31524	1135.587321944011	0.056523673409
1	31547	1136.858024784936	0.140435973672
1	31562	1137.28295909471	0.159005510172
1	31590	1138.233405123291	0.745343173414
1	31635	1139.242819310964	0.88968530576
1	31642	1139.643330951232	0.026388442235
1	31659	1140.947813817821	0.203907056205
1	31673	1141.75313187304	0.255713235722
1	31684	1142.380176995018	0.019284938584
1	31709	1143.299782587802	0.822537943679
1	31769	1144.972426041239	1.577869230439
1	31804	1145.920296740008	0.313185712218
1	31838	1146.873425423951	0.598902868262
1	31856	1147.224399447055	0.160353437683
1	31873	1147.93261015827	0.695752452382
1	31884	1148.225408876729	0.087583933212
1	31894	1148.947079284426	0.320626436998
1	31919	1150.048799454048	1.017843788483
1	31939	1151.115225130624	0.022537688366
1	31972	1151.438135277433	0.238075431709
1	32003	1152.787946897586	0.806938782367
1	32031	1153.892680113315	0.259248434249
1	32055	1154.607822388767	0.120152874321
1	32088	1155.398789763536	0.774811304541
1	32135	1157.027345065024	1.020817013861
1	32165	1158.218968451249	0.549611708229
1	32244	1160.402400230594	1.663058323639
1	32254	1160.82536819081	0.389391559938
1	32298	1162.045031704049	0.654329750272
1	32325	1163.274968829249	0.165118350898
1	32339	1163.443831818448	0.130536282519
1	32370	1166.340498017716	0.112774080577
1	32430	1168.421460225096	1.588028972339
1	32450	1169.226177427086	0.669986259598
1	32461	1170.06227784688	0.084912488452
1	32482	1170.808662438738	0.604259767148
1	32501	1170.984072943602	0.112605298683
1	32511	1171.087962914154	0.100339298482
1	32535	1172.454538146402	0.217315155534
1	32556	1173.550154176534	1.087748934699
1	32584	1174.878493098821	0.839368863953
1	32598	1175.427953304422	0.300194455904
1	32605	1175.992011289855	0.376253217881
1	32630	1176.69048270909	0.492628329441
1	32644	1177.16638868794	0.112903870067
1	32668	1177.527074353884	0.344042405906
1	32692	1178.209408325076	0.057046655321
1	32709	1178.91964007754	0.023880143229
1	32731	1179.905611149912	0.233814194358
1	32745	1180.278285601477	0.179418329491
1	32783	1181.467688410476	0.490076170559
1	32797	1181.82023117694	0.348572169324
1	32814	1182.381513377498	0.305722944556
1	32825	1183.436198894175	0.153444715624
1	32891	1186.757871954703	1.867393452048
1	32909	1187.137537741005	0.032731417167
1	32948	1189.367381158355	1.251653103748
1	32962	1189.786566884327	0.108292069312
1	32987	1190.621560367834	0.822564545877
1	33043	1192.230573007387	1.158267116958
1	33057	1192.400791535942	0.007564431528
1	33112	1193.810400980205	1.233552656761
1	33129	1194.866396299581	0.519094807315
1	33140	1195.07494353342	0.000484371871
1	33168	1196.169955281163	0.562834231293
1	33179	1196.265582786699	0.009393594701
1	33200	1197.454752074549	0.605167206453
1	33210	1197.954281353798	0.455714182467
1	33231	1198.928596417328	0.336801448574
1	33245	1199.653735529346	0.488998404273
1	33259	1199.89652410349	0.065746247301
1	33273	1200.804975201976	0.060081953109
1	33307	1201.951200716516	1.033924427704
1	33314	1202.171199517193	0.00353546386
1	33331	1202.612760888066	0.435890180221
1	33350	1203.119314187066	0.110616754337
1	33390	1203.843197556695	0.260649389611
1	33410	1204.118919020358	0.275681111295
1	33451	1205.426252701977	0.828712461393
1	33477	1206.355790594768	0.462573334397
1	33528	1207.864415302143	1.278694282903
1	33543	1208.586257072108	0.221129403604
1	33558	1208.907413148772	0.162545039173
1	33627	1210.372228411637	1.069801604181
1	33645	1210.634738029284	0.230173796134
1	33655	1211.204766230596	0.353262525435
1	33690	1212.199015562494	0.226688149352
1	33740	1213.732625133746	1.464757745593
1	33757	1214.547972342346	0.323633476402
1	33788	1215.661461562716	0.37052450288
1	33805	1216.075034849966	0.046795192754
1	33823	1216.775259402785	0.510359551308
1	33844	1217.676531937276	0.412488013033
1	33855	1217.87744297764	0.116251565657
1	33862	1218.4102305261	0.150679185492
1	33872	1218.585432393206	0.000489587465
1	33886	1219.049153485206	0.293288162321
1	33896	1219.316599510627	0.114868377213
1	33957	1220.474707039464	1.000273670312
1	33970	1220.599853262897	0.104659453544
1	33984	1221.333155489012	0.031943853968
1	34030	1223.596599873408	2.101708959307
1	34043	1223.996711029658	0.016217271064
1	34064	1225.221104053365	0.779309533801
1	34100	1226.158152405562	0.590632555423
1	34111	1226.463164415579	0.158430013831
1	34125	1226.845168549154	0.168002733618
1	34163	1227.660137786024	0.238345187162
1	34190	1229.082934715159	0.560720035223
1	34204	1229.856877407409	0.125471306978
1	34222	1230.246295873103	0.185086199247
1	34282	1232.251391884699	0.691697263088
1	34306	1233.106605130947	0.294748814583
1	34316	1233.355392161149	0.200307039362
1	34330	1234.331721606807	0.165756562297
1	34358	1237.882850822265	0.695332397517
1	34372	1238.703718752512	0.809344649726
1	34422	1239.999916985342	1.025508638403
1	34432	1240.251519160926	0.118728435717
1	34449	1240.657477267391	0.104246458356
1	34459	1240.850252154989	0.113054565906
1	34477	1241.625959866058	0.299415135483
1	34520	1243.069687269086	0.486102908469
1	34555	1244.063494288706	0.749075986097
1	34569	1244.90204917398	0.764730359752
1	34593	1246.276585048837	0.145784231038
1	34607	1246.758203177747	0.044388693353
1	34628	1247.104926285762	0.009941203597
1	34670	1248.235873343357	0.68146049775
1	34691	1249.096804363624	0.163548597446
1	34713	1250.343645169223	0.667042957248
1	34733	1250.781138840784	0.044338030119
1	34771	1252.263963055873	0.901532570206
1	34821	1253.88545331975	0.713837341119
1	34851	1254.782446022594	0.441020514316
1	34866	1255.407255704896	0.08966950712
1	34893	1256.461881571833	0.761378925856
1	34930	1257.684761052826	0.581093543997
1	34963	1259.603404694682	0.40557652329
1	35009	1261.312004480889	1.072156094675
1	35020	1261.87999512281	0.025966791707
1	35072	1262.897112790543	0.930381985952
1	35107	1263.749415015674	0.753770767352
1	35114	1264.059948939054	0.088156198916
1	35121	1264.337386991599	0.049546352664
1	35135	1265.526064089773	0.827916940778
1	35142	1266.025952445355	0.451765891354
1	35166	1267.417707542383	0.783548853059
1	35212	1269.320998515848	1.107280486196
1	35237	1270.558288421474	1.050583636234
1	35263	1271.513385652104	0.520487490296
1	35303	1272.479908754913	0.289216688316
1	35317	1272.977966064078	0.091709210596
1	35343	1273.544409394927	0.550843286489
1	35373	1275.267794698143	0.308951462994
1	35388	1275.803729337147	0.301609356293
1	35402	1275.955257787352	0.050499021347
1	35429	1276.878500247692	0.710108242576
1	35439	1277.28730869848	0.273578746997
1	35496	1279.493517891433	1.911027724543
1	35513	1279.81312842525	0.299343855366
1	35524	1280.469398372222	0.004201973896
1	35531	1280.53903809952	0.064393664822
1	35538	1280.572293874586	0.018587785155
1	35567	1281.080512265976	0.420845121899
1	35607	1283.532169204181	0.67685297034
1	35654	1286.032986527056	1.474343133652
1	35688	1287.051165045515	0.922107394368
1	35724	1288.502144922204	0.155965024378
1	35744	1289.08576717459	0.409394476596
1	35761	1289.631012648604	0.213759371345
1	35783	1290.127592816877	0.2483794256
1	35803	1290.737068207158	0.27863149561
1	35835	1293.223916018832	0.052236825272
1	35846	1293.486669102996	0.17206049071
1	35870	1294.463554773696	0.923527318309
1	35899	1295.310605330931	0.536804728564
1	35916	1295.688710034711	0.310213751222
1	35933	1296.121559445646	0.09970432922
1	35969	1297.645123647211	0.98328419794
1	35987	1298.092168329997	0.420774825436
1	36015	1298.459988291603	0.356838809682
1	36045	1299.130322341472	0.433307032059
1	36098	1300.301501363605	1.006028616888
1	36136	1301.708393365577	0.937862643409
1	36150	1302.07809519583	0.115094709059
1	36157	1302.111975564354	0.004513502969
1	36175	1302.306420175868	0.186394378394
1	36189	1302.878940403849	0.569274167202
1	36221	1303.932616021348	1.005305484961
1	36234	1304.864250555617	0.890169941872
1	36273	1305.838516354036	0.762163304538
1	36290	1306.643084198509	0.363330590883
1	36297	1307.005693093055	0.066192963586
1	36325	1308.203750865056	1.087573992118
1	36393	1310.837438100652	1.872003074373
1	36414	1311.149536712073	0.305267761347
1	36434	1311.747241165526	0.120265243598
1	36441	1312.009409703763	0.216511663878
1	36458	1312.644090601228	0.48044714729
1	36472	1313.65928454962	0.714978751521
1	36494	1314.419174581197	0.455381849963
1	36525	1314.775095930747	0.275315271544
1	36546	1315.737110121949	0.122413813468
1	36593	1316.725970548625	0.91727253163
1	36627	1317.346557968182	0.300107108049
1	36703	1319.666828819783	0.659286237912
1	36728	1320.746080974092	0.477297309042
1	36763	1322.028724983067	0.913532062064
1	36780	1322.267997439927	0.092142977566
1	36794	1322.797550988969	0.145193431226
1	36808	1323.405106129445	0.592043008268
1	36822	1324.049994294485	0.479399928504
1	36850	1325.379820808026	0.510730480937
1	36868	1325.703726103893	0.092642805367
1	36914	1327.371138482462	1.32921171487
1	36948	1328.859864266062	1.43019453801
1	36977	1329.521163909164	0.399070990285
1	36991	1329.954331172687	0.081960193784
1	37015	1330.961220520739	0.024092113204
1	37064	1332.441895941761	0.692591806653
1	37106	1333.386900006304	0.551863727027
1	37117	1333.881025124142	0.004082664077
1	37153	1334.820940343216	0.768495239212
1	37173	1335.484577411523	0.468027819116
1	37208	1336.687360999785	0.624620598461
1	37261	1338.329646650809	1.354217912881
1	37291	1340.54699238223	0.393420873239
1	37308	1341.009124000332	0.074340048735
1	37319	1341.416184404516	0.105043938595
1	37333	1341.69078932131	0.058482097456
1	37350	1342.140356386606	0.263437457218
1	37385	1343.056497057893	0.685864265234
1	37410	1343.892802681485	0.102989843292
1	37417	1344.081129504812	0.098266882217
1	37459	1345.696958914256	1.275207591154
1	37473	1346.5764376884	0.615133476655
1	37484	1347.265587067672	0.542842046041
1	37508	1348.051289563833	0.110134881664
1	37558	1348.947395420806	0.805969851166
1	37575	1349.576442796794	0.421339567101
1	37632	1350.563334103499	0.879042896885
1	37655	1352.200164326937	0.036620582721
1	37680	1353.396080035162	1.111813693622
1	37708	1353.97050744213	0.565636263059
1	37736	1354.409254456149	0.311752768095
1	37755	1354.660688247968	0.217955736167
1	37792	1356.760404343433	0.199452447112
1	37816	1357.984216265735	0.952867637083
1	37830	1359.423225163083	0.691669964556
1	37861	1360.806982845581	1.1015634548
1	37886	1361.598484522319	0.087598601227
1	37907	1363.076390946369	1.16423704612
1	37921	1363.48208982827	0.314341928006
1	37932	1363.966451082478	0.38800678926
1	37964	1365.154423836287	0.424616867413
1	37991	1365.554669322359	0.011426759699
1	37998	1365.730105717605	0.016149084388
1	38005	1366.002049086599	0.063695497617
1	38045	1367.017680311198	0.7079780321
1	38069	1367.940144041585	0.396130761939
1	38087	1368.114077464159	0.150559799283
1	38097	1368.272725975071	0.046640800846
1	38124	1369.015598408753	0.395938537069
1	38148	1369.860725491924	0.811868162265
1	38162	1370.785887096388	0.328710143949
1	38202	1372.893150827197	1.104476654043
1	38219	1372.993087211719	0.039294542109
1	38250	1374.847058097197	1.105108183633
1	38257	1374.879779678133	0.004319415299
1	38320	1377.761244229538	2.816658469508
1	38352	1379.391502564777	1.453130808894
1	38362	1380.386448882591	0.364965438661
1	38387	1380.906890929096	0.120878559862
1	38394	1381.065110084321	0.122088095354
1	38401	1381.226155160731	0.111650111814
1	38433	1381.798687896654	0.253119783266
1	38474	1383.447573274146	1.237892734448
1	38488	1384.126396761783	0.442960672909
1	38498	1385.027299745959	0.884844788004
1	38509	1386.12105428911	0.022457018364
1	38531	1386.683654325743	0.257559284325
1	38548	1386.873327133765	0.181046377294
1	38576	1387.473959722583	0.591299262113
1	38650	1390.807152231614	0.791886927302
1	38671	1391.555005564883	0.503903527728
1	38681	1392.056978971258	0.038096654297
1	38706	1393.073310263975	0.907174465685
1	38727	1393.649455527422	0.111086041847
1	38751	1394.544489652699	0.518120531554
1	38772	1395.405345496594	0.112040104102
1	38786	1395.765577452402	0.321135707379
1	38814	1397.745450654948	1.434624529986
1	38832	1398.073572003601	0.056317892638
1	38842	1398.566329503902	0.030943030519
1	38877	1400.351007573302	0.394448065575
1	38915	1403.074639347431	1.151970522858
1	38936	1404.08304044681	0.987592529202
1	38950	1404.402283866017	0.210467243423
1	38993	1406.151921673596	0.869556648378
1	39028	1407.229346007696	0.945738946441
1	39056	1407.931389379172	0.368266824049
1	39076	1408.345849828911	0.284701406479
1	39086	1408.714088990988	0.220075425353
1	39108	1409.881781763297	0.367819081617
1	39128	1411.133052976304	0.63581839297
1	39150	1412.171866454095	0.403315074819
1	39206	1413.305427410618	0.634297133555
1	39263	1414.814595219396	1.367541633863
1	39280	1415.303724973414	0.400784356896
1	39324	1416.606241726048	1.214126690858
1	39374	1418.043056400971	0.951206434512
1	39384	1418.426496971595	0.291632916603
1	39448	1420.777066090993	0.858882409488
1	39462	1421.432634208942	0.376042713825
1	39472	1421.616368873159	0.098939357332
1	39482	1421.942778327202	0.170180370052
1	39550	1423.006442726636	1.037807736102
1	39569	1423.419592732214	0.376378261175
1	39602	1424.797440728751	0.103355629486
1	39636	1426.176383938577	0.178100171285
1	39661	1427.955582309507	0.196681081384
1	39713	1430.056211115581	1.933382642201
1	39730	1430.768353755311	0.523359963259
1	39748	1432.686749400538	0.182127546805
1	39797	1434.327909558915	0.437064644482
1	39815	1434.724177817708	0.318444856683
1	39853	1436.633050310695	0.867258329425
1	39882	1437.825656933786	0.553592129748
1	39916	1438.893012769878	0.969427856565
1	39930	1439.423935355151	0.327374749808
1	39937	1440.016933938439	0.48296604844
1	39948	1440.434579516998	0.239693660892
1	39955	1440.892324141623	0.048925591265
1	40028	1442.418448403437	1.517699592268
1	40046	1442.842703157272	0.050991714062
1	40063	1443.371021843268	0.034937291878
1	40070	1443.501770055424	0.05077754877
1	40080	1444.288300455018	0.533801154794
1	40091	1444.378042161813	0.006583147885
1	40115	1445.930747614921	1.255615981055
1	40137	1446.298458035055	0.322937625201
1	40147	1446.527208617611	0.144459820411
1	40158	1447.0123120373	0.355376024945
1	40175	1447.635035381521	0.195952211171
1	40182	1447.758914225959	0.019406035218
1	40224	1450.62004810399	0.54570362478
1	40245	1451.550946461553	0.759741808346
1	40255	1452.109744754625	0.437631930428
1	40276	1452.936563297656	0.112473332288
1	40291	1453.633613848831	0.158365798865
1	40304	1454.017916551	0.159308194664
1	40343	1455.804476855766	1.047707543821
1	40367	1457.143961740984	0.372336202199
1	40381	1457.588265486666	0.156569989052
1	40392	1457.881376330681	0.084121159949
1	40406	1458.451817354105	0.516593542481
1	40435	1459.677833706475	0.454877067997
1	40451	1460.517440101852	0.572674857627
1	40462	1460.760770971422	0.013218552537
1	40484	1460.988131121341	0.09367778616
1	40494	1461.34770090209	0.132796770087
1	40512	1461.806337500577	0.161237154682
1	40553	1463.911907163903	0.005690826094
1	40581	1464.926553804384	0.501882294713
1	40588	1465.022289960827	0.035535833319
1	40599	1465.508590990878	0.456401246902
1	40630	1466.534652689761	0.794106000417
1	40672	1467.845162622021	0.988467511638
1	40715	1468.631047753414	0.614413517116
1	40738	1469.389582032596	0.28373287378
1	40770	1470.880193970902	1.143967482732
1	40777	1471.028371498967	0.148078357029
1	40831	1472.015915716545	0.960320292797
1	40866	1473.291904895991	0.992122603396
1	40897	1474.2317302034	0.74394115578
1	40904	1474.561301828611	0.122322055608
1	40920	1475.068118463099	0.448861192172
1	40942	1475.630575956237	0.051124960456
1	40966	1476.863892439739	0.009401639666
1	40976	1477.35619419837	0.352483739417
1	41002	1478.20121726639	0.330099110581
1	41009	1478.238658736979	0.004441580673
1	41064	1480.049624118891	0.92401696957
1	41071	1480.346249859165	0.138229530613
1	41092	1481.017092489113	0.428268253039
1	41127	1482.518561985892	0.528688813414
1	41145	1482.988214181045	0.437999843071
1	41190	1484.330214579626	0.27851491921
1	41208	1485.069782512208	0.197535455074
1	41218	1485.412546347879	0.077646119729
1	41233	1486.100765445167	0.411764279173
1	41250	1486.648340010577	0.53808987377
1	41264	1487.063539330302	0.103580304403
1	41274	1487.404352495924	0.223196937036
1	41334	1489.3275223983	1.91049931764
1	41411	1491.923364366002	1.637787341827
1	41432	1493.122334058149	0.585192476048
1	41459	1493.702643295776	0.291366672968
1	41474	1494.458470885705	0.139699260577
1	41495	1496.337263763792	0.145251359432
1	41523	1496.635924673373	0.250453674255
1	41569	1497.498731597337	0.735033563601
1	41596	1497.955362091811	0.416976266588
1	41603	1498.304774558561	0.134488830381
1	41614	1498.38854848913	0.017045103843
1	41645	1499.497260630061	0.531670448335
1	41669	1499.974053041111	0.326234497559
1	41747	1504.412527072474	2.474851888904
1	41758	1505.068361559562	0.052998049926
1	41780	1505.60969332955	0.138618826868
1	41841	1507.557197981254	0.548493553751
1	41859	1507.875792369128	0.197656933099
1	41876	1508.572947038657	0.096329964095
1	41883	1508.664449028117	0.068296122936
1	41904	1510.100002417581	0.841385709535
1	41918	1510.548291965918	0.334502919487
1	41925	1510.574244705342	0.008681755511
1	41939	1510.788484790746	0.14383898701
1	41957	1512.145613343756	0.452526771851
1	41984	1512.93206719392	0.094738017114
1	42014	1514.246190045509	0.425943828918
1	42122	1516.991189904158	1.73074483663
1	42184	1518.75151927825	1.521877779768
1	42194	1518.900761272104	0.102560955695
1	42226	1519.686410183185	0.214248723648
1	42258	1521.962941625832	0.210371611139
1	42276	1522.694719438185	0.069865459756
1	42286	1523.392289658932	0.231317972345
1	42293	1523.607877330668	0.092807084106
1	42300	1524.331553396493	0.364296767754
1	42327	1525.369491240133	0.466227313259
1	42373	1527.339658967188	1.514112755509
1	42390	1528.378897561556	0.619734545405
1	42401	1528.713186770972	0.086393370403
1	42430	1529.587044950586	0.808219491565
1	42479	1531.036421349607	1.124121338309
1	42489	1531.279044205751	0.11475738053
1	42535	1532.183691496557	0.711345116659
1	42564	1532.827657452997	0.642624683033
1	42594	1533.657525658964	0.177944106238
1	42604	1534.233939417314	0.38143983473
1	42685	1536.067387438619	1.756210512434
1	42713	1537.214932551097	0.739924693923
1	42727	1538.275735269711	0.514675560398
1	42748	1539.385923941498	0.910073485829
1	42797	1540.925861152897	0.843106568296
1	42804	1541.055596041587	0.104820267543
1	42811	1541.90318013986	0.315199414111
1	42847	1543.418656985244	1.099485974845
1	42857	1543.961952403948	0.209633387111
1	42903	1545.859946373827	0.957096514913
1	42968	1548.171499963966	1.357570988453
1	42975	1548.534151817057	0.157944387184
1	43010	1549.433613367384	0.447060770082
1	43031	1550.309277706224	0.059296655872
1	43038	1550.422131433881	0.007751423005
1	43062	1551.539945745364	0.490258344581
1	43110	1553.432093901668	0.716549184052
1	43175	1555.40342254976	0.759200584235
1	43189	1556.03115604523	0.05242895165
1	43199	1556.244700636302	0.067523449968
1	43234	1558.580488551715	0.135078336601
1	43241	1559.1668781753	0.454009844523
1	43273	1561.020750127406	1.746872856444
1	43292	1561.4646287376	0.37091108437
1	43302	1561.812910365109	0.062053840552
1	43329	1562.396900781625	0.306020540196
1	43349	1563.511496993126	0.249657272501
1	43360	1563.768644037244	0.07208210402
1	43374	1564.729797884938	0.947673413539
1	43406	1566.158284787322	1.27617612891
1	43413	1566.177779780163	0.008636337911
1	43476	1567.565375028555	0.386484327164
1	43493	1567.818061447766	0.228869124501
1	43507	1568.708590454511	0.557004639903
1	43524	1569.490530467093	0.524960948238
1	43546	1570.169912673085	0.342357528569
1	43584	1571.511559417438	0.896109354854
1	43602	1572.303962082695	0.596333729889
1	43616	1572.692311169146	0.152455128517
1	43652	1573.412643651782	0.611924656456
1	43685	1574.240318430982	0.556303930574
1	43704	1575.305917015137	0.197641446009
1	43711	1575.64881905856	0.111953569345
1	43726	1575.815186198205	0.147815976932
1	43767	1577.25520279296	0.996482141561
1	43794	1578.262172291656	0.231876426497
1	43812	1578.886788803164	0.525588981489
1	43834	1579.882284428988	0.16002505705
1	43859	1580.2331293953	0.345221788268
1	43882	1580.549465272641	0.235820832419
1	43897	1580.91836795442	0.088710978064
1	43915	1581.468698550461	0.125849328358
1	43935	1581.675108632051	0.203078746359
1	43979	1583.063243730668	1.009036435731
1	44000	1583.89496938595	0.365653566598
1	44023	1584.794129437335	0.261247432043
1	44036	1584.937165321599	0.126702458019
1	44090	1586.555890422008	0.599770815424
1	44152	1588.404348609794	0.469329322904
1	44207	1589.892485485656	0.596120746672
1	44221	1590.671410782827	0.112188459066
1	44232	1590.943167854276	0.196898024127
1	44288	1593.007300814213	0.543940416534
1	44314	1593.778903924931	0.699797057967
1	44362	1594.587146195854	0.780902610793
1	44393	1595.180593385678	0.348637734139
1	44439	1597.086535312107	1.877614590855
1	44457	1597.308248364355	0.18090459405
1	44498	1599.427220417142	0.245229767923
1	44526	1600.181802312411	0.753179645088
1	44586	1601.7974463315	1.528615585702
1	44613	1603.24686476946	0.17813998697
1	44620	1603.482780747021	0.153244576229
1	44637	1604.104382514459	0.374331321313
1	44659	1605.043322787286	0.378571077872
1	44673	1606.013473418929	0.238515242884
1	44691	1606.72574164057	0.480318657684
1	44714	1607.542258578077	0.274017266597
1	44750	1608.898851167799	0.34865577797
1	44792	1610.14518251113	0.705827033731
1	44799	1610.605907325402	0.235333148696
1	44813	1611.073190486667	0.185380725274
1	44886	1614.779207029923	1.222108356207
1	44907	1615.611801635832	0.564429208219
1	44914	1615.949259213472	0.267082126226
1	44924	1616.267233647906	0.297661748295
1	44963	1618.585664132553	0.93637141707
1	44970	1618.69074069235	0.002357769424
1	45002	1620.988162197749	0.878588453317
1	45016	1621.56174348302	0.291791081
1	45050	1623.331932919248	0.715795111119
1	45068	1624.576901047771	0.08214125281
1	45082	1625.076511973572	0.400125055985
1	45096	1626.134376373397	0.191782981773
1	45110	1626.579429245291	0.444648106599
1	45117	1626.963904116629	0.27336114122
1	45135	1627.823549891523	0.202469268644
1	45159	1629.002817725376	0.853140945201
1	45166	1629.186759259184	0.091020326835
1	45177	1629.409014711427	0.054899172939
1	45188	1629.858827961282	0.231880548406
1	45254	1631.709958913436	1.762390815353
1	45278	1632.462940167619	0.67103992586
1	45310	1634.925122984894	0.605840479972
1	45348	1636.889748293138	1.19759308489
1	45355	1637.279299292246	0.269717213525
1	45373	1638.721002308376	1.015413958962
1	45419	1640.529136258985	1.069011708506
1	45443	1641.117264515872	0.535552749457
1	45450	1641.170634859092	0.036198079004
1	45481	1642.226225934832	0.987129496973
1	45488	1642.256454275684	0.007164584203
1	45513	1642.851515271118	0.538046192871
1	45534	1643.87170790069	0.158840468389
1	45551	1644.495809971435	0.324889931948
1	45558	1644.620939108715	0.039335024159
1	45575	1645.221006705139	0.083197187847
1	45586	1645.65113891761	0.096004371564
1	45593	1645.69521937366	0.017682904989
1	45604	1646.066880158781	0.185034414606
1	45611	1646.391697723622	0.228692200629
1	45632	1646.817123888751	0.233940498147
1	45653	1648.299813714015	0.148693203018
1	45692	1649.632514659036	0.423770598891
1	45699	1649.680351400945	0.029340817109
1	45744	1651.414865897267	0.517839523543
1	45754	1651.671100032336	0.110117791169
1	45786	1654.09173441377	0.651033068613
1	45803	1654.431288608112	0.014370043757
1	45810	1654.526310526091	0.032316563935
1	45817	1654.936804278168	0.345648060384
1	45827	1655.556600854814	0.593184875292
1	45853	1656.469942667492	0.572387265414
1	45860	1656.517532180734	0.023736924616
1	45871	1656.714632065345	0.144698640679
1	45881	1656.817724466043	0.016550186178
1	45894	1657.187506484135	0.294337983922
1	45918	1659.799642771459	0.925979464784
1	45957	1661.625707519061	1.556936997618
1	45971	1662.696438561039	0.769844079471
1	45988	1663.351377173186	0.65358302278
1	46024	1665.694628806689	0.235997937621
1	46046	1666.177602608389	0.225603979779
1	46080	1666.710910784974	0.500180563552
1	46133	1667.891120865178	0.706390877358
1	46147	1668.27198735061	0.12843919698
1	46157	1668.555988613648	0.097825460198
1	46174	1668.959681370956	0.183010437138
1	46185	1669.354663715661	0.050762434346
1	46192	1669.535399517423	0.0430406855
1	46223	1670.569918090043	0.073084399667
1	46251	1671.561476468192	0.768688817794
1	46258	1671.700139951277	0.035674809304
1	46289	1672.448971419338	0.66395492082
1	46332	1674.569437765127	1.041434490808
1	46353	1675.454793833761	0.382168861375
1	46377	1675.950058609898	0.06679436617
1	46391	1677.067805261278	0.040854326838
1	46408	1677.599106625652	0.275378829257
1	46437	1678.622956438624	0.181368997903
1	46469	1679.863389428738	1.069579105518
1	46512	1681.780012804139	0.914681905263
1	46568	1682.511150156392	0.640267192586
1	46578	1682.554109886225	0.005245784002
1	46601	1683.653178975216	0.175046070498
1	46615	1684.053883894306	0.065832119662
1	46625	1684.532514714816	0.387485234655
1	46678	1686.956566367678	1.713716048313
1	46703	1687.695144953267	0.570612395244
1	46731	1688.692075947623	0.735777123885
1	46755	1689.442179518136	0.499574014242
1	46765	1689.787068020574	0.303410264184
1	46806	1691.345468672695	0.625667789634
1	46819	1691.467629086871	0.115862717113
1	46826	1691.70287675708	0.066425147819
1	46847	1692.853571332829	0.213760793233
1	46854	1692.993933803393	0.112503312918
1	46864	1693.272028795878	0.207265982022
1	46886	1693.848508565815	0.448567035269
1	46943	1694.671608525155	0.774227343849
1	46977	1695.21155968866	0.408670034696
1	47010	1696.415914311866	0.145713853802
1	47028	1697.374432268357	0.064899077215
1	47049	1698.594725348027	0.857479887498
1	47063	1698.976131533011	0.375752611785
1	47081	1699.451645022241	0.308724113886
1	47109	1700.931019641117	0.441526778729
1	47157	1703.474641952194	2.411661332264
1	47168	1703.798110903155	0.007250056252
1	47186	1704.499264636289	0.412759022301
1	47211	1704.935746651424	0.344086500127
1	47295	1707.579989060045	1.908104498029
1	47354	1710.872474742282	1.530511790819
1	47361	1711.001848851735	0.077300104961
1	47372	1711.546251651749	0.442039248571
1	47413	1713.962086017517	1.222972181823
1	47448	1715.306906931758	0.181899010997
1	47469	1716.286435840916	0.504218090545
1	47476	1716.418205820946	0.005322682289
1	47491	1716.55465127888	0.108038169587
1	47511	1717.530774216411	0.398948394465
1	47529	1717.964660488962	0.26837320227
1	47540	1718.504656608357	0.274563009625
1	47561	1718.743284706459	0.220900051382
1	47603	1720.180836791252	1.046663565688
1	47610	1720.439790157186	0.100166392921
1	47637	1721.341217844345	0.134148824236
1	47656	1721.936072532174	0.52245937103
1	47675	1722.493275876157	0.189759689973
1	47693	1724.64295474987	0.084457624753
1	47710	1725.290170302298	0.601862539885
1	47732	1726.419023748176	0.796067063512
1	47742	1726.790218628554	0.091966671128
1	47760	1727.224689670267	0.359319127385
1	47778	1727.457575754392	0.020329439355
1	47805	1728.084002209093	0.621489008195
1	47858	1729.245507551361	0.916873447212
1	47875	1730.511766249516	0.005183420915
1	47882	1730.645771794046	0.002516165671
1	47889	1730.660681625994	0.010968395358
1	47899	1730.89796786598	0.158538292376
1	47913	1732.303845235432	0.128139336595
1	47967	1736.097848419637	1.656110807802
1	47974	1736.274099143789	0.019688575425
1	48039	1739.047329801162	2.720345482881
1	48050	1740.13274420836	0.033975484683
1	48075	1741.321036008546	0.468289185679
1	48117	1743.327947155317	0.058903795706
1	48138	1743.958645218591	0.605865247977
1	48159	1744.482583128932	0.277242600638
1	48169	1744.751159893911	0.260871687703
1	48187	1745.482449788761	0.705387105954
1	48222	1746.719493130978	0.747817441021
1	48235	1747.402102576894	0.658746591255
1	48253	1747.828596815903	0.016522004576
1	48267	1748.689128217666	0.732399521269
1	48295	1750.70426050808	0.441519038849
1	48309	1751.813842169735	0.614241237297
1	48348	1753.820528069602	1.561936805567
1	48376	1754.883304489448	0.63418491661
1	48457	1757.406635132798	2.134911536666
1	48464	1757.574592991132	0.085312725218
1	48481	1758.100542482578	0.062298589175
1	48505	1758.812874197528	0.530876702025
1	48512	1759.304473519261	0.286421658874
1	48534	1759.876121084071	0.398669240579
1	48617	1762.067480538218	1.155953753071
1	48652	1763.514698554208	0.545518369235
1	48670	1763.618845137468	0.063666312171
1	48681	1763.817983506014	0.032643840078
1	48709	1764.806183512289	0.793277125642
1	48716	1764.913365279148	0.036938032042
1	48740	1766.304517786431	0.368077272275
1	48758	1766.884956320157	0.543123701113
1	48789	1767.741931834	0.212114515521
1	48832	1768.657970508133	0.256928837232
1	48876	1770.592430856313	1.825096326975
1	48883	1770.67913548399	0.047919545705
1	48890	1771.066725339813	0.257170230597
1	48908	1771.545044415343	0.186885616591
1	48943	1772.756382227457	0.967304617716
1	48950	1772.890752624767	0.025821794598
1	48972	1773.746035372102	0.522401757899
1	49003	1774.765983630245	0.811266913922
1	49016	1774.984393606001	0.175856722315
1	49034	1775.605290293006	0.157116966366
1	49055	1776.087287159195	0.261271246707
1	49072	1776.727137565847	0.050275210529
1	49125	1778.083374188587	1.268436123303
1	49153	1778.656741485152	0.417420096163
1	49187	1780.84991292845	0.185562438318
1	49208	1781.758730598052	0.078507287367
1	49226	1782.573283847308	0.136534155199
1	49233	1782.712929250365	0.11368387968
1	49261	1784.125411727966	1.130699398588
1	49335	1786.71255750033	1.881263355282
1	49368	1787.703118038029	0.668673474955
1	49419	1789.119433060048	1.075303033822
1	49436	1789.753477308444	0.005925867849
1	49450	1790.164283230607	0.198056676851
1	49474	1791.214481530397	0.90005578775
1	49489	1791.850897352485	0.259103181883
1	49503	1792.481959500173	0.327568846473
1	49510	1792.553972278065	0.02822893475
1	49528	1793.061769141875	0.154497980143
1	49559	1793.700569647509	0.362828609736
1	49581	1794.129612426068	0.246291466741
1	49599	1794.279238924074	0.128498137325
1	49643	1796.399180117733	0.377277909898
1	49657	1796.843960083114	0.297558581895
1	49671	1796.983454166039	0.06707706879
1	49703	1797.754910131449	0.47724225396
1	49738	1799.669607688976	0.631785072411
1	49749	1799.828226921695	0.133280405275
1	49772	1800.707530531639	0.803855195681
1	49822	1803.315836744251	0.129240733407
1	49836	1803.496113877062	0.156929896836
1	49853	1803.846863927245	0.315789640181
1	49923	1806.364773635072	2.382708212305
1	49976	1808.16983115979	1.181024599854
1	50017	1809.678897559799	0.669723606741
1	50038	1810.004842411905	0.0301169568
1	50048	1810.527790550404	0.387626484788
[...]
8	4735	174.558355423347	0.73740035092
8	4897	179.06063137559	0.073734456593
8	5194	188.989897777711	0.222441586869
8	5337	193.502977607377	1.988573953826
8	5397	194.839665636125	0.659579168707
8	5490	197.301445654674	2.009790817932
8	5520	197.947048864467	0.051492109188
8	5619	202.370415812151	0.090102147418
8	5629	202.587716248768	0.192239386142
8	6659	243.043609354118	0.494003542718
8	6785	246.807899577213	1.785364951083
8	7441	272.345977812603	0.779358221976
8	7514	273.477211245044	0.160600954119
8	7686	280.539159924442	0.559667171708
8	8301	307.861714349424	0.899628403802
8	8361	309.974921223306	0.935727866326
8	8477	314.07847687721	0.443117795028
8	8700	321.38940202933	0.443879570624
8	8733	322.338609197197	0.015722594489
8	8874	327.369682389712	2.707270049861
8	8904	327.854015264842	0.465189896894
8	9163	335.399252181499	1.018871814383
8	9319	340.540541391779	0.519083296606
8	9517	346.766606363266	0.086356997136
8	9568	347.669610103945	0.840039476432
8	9812	356.553944085633	1.373300349249
8	10081	365.905711269874	0.174053116235
8	10209	369.961383634845	0.068929721123
8	10754	388.306225887689	0.514120973214
8	10853	391.146300153841	0.406713503726
8	11143	398.892478597311	0.334258106306
8	11378	407.577701829983	0.207372664223
8	11507	412.712681389001	1.26269043035
8	12097	433.393373921983	0.071188733027
8	12128	434.07951933731	0.210136079025
8	12257	439.027134844221	0.296033808057
8	12564	448.987197873897	0.179817260425
8	12623	450.601355926359	1.310043089661
8	12711	452.928130718089	0.243389577663
8	12943	461.443561800956	0.226654712428
8	13234	473.124155145516	0.097619861688
8	13272	474.020092067276	0.854488293745
8	13325	475.159139097244	0.058773197241
8	15256	551.426228349888	0.265412797683
8	16160	590.421181849415	0.114178740695
8	16410	598.727399496161	0.387491177282
8	16490	601.265417988797	0.342238834946
8	16684	608.507488671632	1.838468491672
8	18106	657.102158102893	0.36282563037
8	18132	658.456752894665	1.321513588996
8	18360	668.265195437414	0.66967968428
8	18564	676.267030056906	0.383603540144
8	18603	677.460506232919	0.19938137901
8	18805	683.915808945133	0.597991884844
8	18883	686.642234840785	0.13868429552
8	18903	687.069984416688	0.226601417902
8	18927	687.907800001901	0.664797364514
8	19608	713.432254424665	0.014940780128
8	19624	713.654314031732	0.14813055725
8	20403	745.220238866478	1.093907554574
8	20857	762.056202854447	0.077918947983
8	21415	780.72768191936	1.310927022878
8	21756	792.818032894008	1.313404238425
8	22391	816.077928549378	2.658517567684
8	22445	818.150343066996	0.59625981465
8	22595	820.854976559562	0.182580198816
8	23482	855.176543799459	0.108115016294
8	23495	855.300858136038	0.086758266873
8	23689	860.971768657994	0.143329575423
8	23945	869.572215072398	0.283264614003
8	24042	871.930743931572	0.1157465256
8	24231	879.206531485244	0.086918190287
8	24319	881.409079268696	0.523299247438
8	24609	893.591365071689	0.021511338766
8	24917	904.602793473692	0.058466922894
8	24982	906.535603155362	1.69963366959
8	25035	908.595799618495	0.157470856053
8	25164	913.153100196339	0.702802381078
8	25273	916.551789677324	0.594247543594
8	25469	922.909323280073	0.646837546049
8	25613	928.305924401948	0.190669805125
8	25899	940.525663645031	1.588675805073
8	26205	952.544987249002	0.035602230929
8	26221	952.844565929839	0.280564120555
8	26634	970.05084515333	0.418244539033
8	26898	978.984722597014	0.223502129448
8	27234	987.720200587646	0.079976545468
8	27303	988.80468567496	0.571369886617
8	27362	990.133407843318	0.690539121842
8	28293	1021.917192755591	0.898810158929
8	28433	1026.064113938446	0.55480140506
8	29032	1046.95317962473	0.101285484906
8	29081	1048.396287515957	0.202891063096
8	29179	1051.739505659263	0.100874879627
8	29365	1057.15935863756	0.202295302445
8	29453	1059.872948477188	0.038338521585
8	29493	1060.317843547719	0.398047190865
8	29578	1064.294404071359	0.433408491484
8	30181	1087.842397346756	0.026063689902
8	30680	1105.840787061893	1.131227871552
8	31068	1121.562046829851	1.039664828491
8	31417	1132.786184535157	0.33371429813
8	31772	1145.076337869011	0.38411286059
8	32085	1155.253883200234	0.121258723129
8	33089	1193.388579558812	0.405792914894
8	33334	1202.755514840667	0.872361971799
8	33407	1203.914034323135	0.105890766664
8	33947	1220.436190288767	0.281914570852
8	34530	1243.44671625528	0.75237877714
8	34942	1258.025896313053	0.661660557764
8	35276	1271.913157510462	0.521642995995
8	35651	1285.529142947393	0.324322370435
8	36018	1298.646314915133	0.241165446123
8	36404	1311.000678083473	0.074135172302
8	36411	1311.149498446914	0.04413632675
8	36630	1317.501304509242	0.781384316413
8	37176	1335.526301773234	3.392557676363
8	37264	1338.595332789822	0.613170091369
8	37764	1355.194961478267	0.548240256719
8	38310	1376.745407751961	0.622941675347
8	38630	1390.425134960586	0.027234338836
8	39067	1408.174695036342	0.451070448926
8	39256	1414.666534013066	0.123851564367
8	39321	1416.196179746621	0.676189845848
8	39354	1417.415808274241	0.206768170319
8	39434	1420.59682854707	0.193401893882
8	39540	1422.813335189537	0.037649216728
8	40822	1471.893107581482	0.730638457721
8	40877	1473.636200589934	0.570159472297
8	40891	1474.123277505551	1.5344823e-05
8	41397	1490.947571429138	0.167619083067
8	41520	1496.579511959733	0.097123820727
8	41792	1505.827501538899	0.222680371352
8	42567	1532.855105254493	0.5297117079
8	42676	1535.828476103807	0.087274024125
8	42919	1546.740439000756	1.036026894106
8	42958	1547.830454707268	0.803536738959
8	43133	1553.924274690046	0.495662803611
8	43335	1562.941920720228	1.614954867964
8	43679	1574.048929296951	0.685324972846
8	43747	1576.847280241735	1.059401155261
8	43758	1577.070895664619	0.090970622938
8	43845	1580.005924899954	0.055668468628
8	43929	1581.597490418673	1.494880206549
8	44102	1586.921690324252	0.399769834963
8	44158	1588.423282012677	0.220912421061
8	44321	1593.839774548034	0.168682240206
8	46074	1666.591256385065	0.353732602061
8	46195	1669.61538799973	2.019423117875
8	46540	1682.266676067818	0.5156272009
8	46594	1683.366659300242	1.070697773361
8	46889	1693.867941587196	2.677901314924
8	46952	1694.707783016896	0.760287356593
8	47558	1718.663056823097	0.061706717804
8	48484	1758.163107555114	1.174637694957
8	49398	1788.597698754776	0.898685333438
8	49602	1794.288045928296	0.117878595741
8	50283	1816.826437272667	2.38069953252
8	50420	1821.758011537037	0.312561882455
8	50701	1834.95367779655	0.232519434081
8	50865	1839.348476886344	0.733007484256
8	50908	1840.618308690762	0.517642448954
8	50992	1843.527391287017	0.086360286304
8	51050	1844.181236924467	0.521008964235
8	51755	1868.087411897456	0.640116226685
8	52525	1895.344935058672	0.086735606713
8	52569	1896.565375293514	1.074091134574
8	53140	1916.946752199168	1.081612613394
8	53305	1921.525291440292	0.254334430464
8	53504	1928.451238444843	0.136758119978
8	53522	1928.706209464085	0.032632924124
8	53603	1930.456381414153	0.109448936115
8	54278	1959.561348743444	0.166148552623
8	55275	2001.00886386608	0.785626057247
8	55372	2003.615829747496	0.3164440319
8	55541	2010.669729280451	0.064481657302
8	55569	2011.158085956177	0.267361957089
8	55916	2024.31342118877	0.475848784396
8	56280	2035.620238221553	0.307625623758
8	56345	2037.257816649924	0.682196920248
8	56508	2042.889135974446	0.806844202785
8	56644	2046.367025083735	1.440996320847
8	56690	2047.15489813801	0.741628286963
8	57446	2073.449763227411	0.0309287583
8	57820	2085.918923409791	0.300361796771
8	57987	2090.747863050603	0.353468278744
8	58299	2100.096054093189	0.777901032571
8	58671	2112.934028966787	0.031156234818
8	58786	2115.398898727439	1.475997871561
8	58954	2122.313627102042	0.170259937003
8	58986	2122.752524176165	0.060282499539
8	59103	2126.579347035123	1.607175294862
8	59182	2129.259201733442	0.111126596644
8	59353	2134.122036505596	0.217765297035
8	59874	2151.450160933362	0.477217179417
8	59913	2152.237022370312	0.392482538309
8	60511	2175.325449604648	0.71654561307
8	60823	2185.370501457974	0.599123298724
8	60837	2185.561686290932	0.191184832958
8	61189	2198.796487796255	0.173588689139
8	61313	2202.921265145821	0.295319970677
8	61361	2203.576160044485	0.537043502724
8	61439	2208.906264617283	0.040179092984
8	61849	2226.474949214109	0.029299518345
8	62216	2237.543556254285	1.117424345049
8	62278	2238.880594220107	1.11550152543
8	62431	2244.341104553795	0.464679522808
8	62577	2250.880660943997	0.055217847662
8	62587	2251.000590315569	0.070209460714
8	62608	2251.422795061717	0.132842408148
8	62670	2252.137138019433	0.597809955433
8	62726	2253.770440690167	1.427213495572
8	63065	2265.255982156524	0.860947713235
8	63321	2273.684529391387	0.524364065396
8	64146	2302.510874159228	0.661499340963
8	64435	2311.409452358381	0.216763131607
8	64450	2311.659042807523	0.094220844016
8	65166	2339.062719922298	0.220832928555
8	65779	2361.388656420477	0.318671872911
8	65963	2367.043238479723	0.73945106038
8	66267	2374.647617989845	0.043501581718
8	66412	2379.714539241718	1.229551992109
8	66552	2385.105671635414	0.616550837002
8	66993	2404.77727525488	0.515427612426
8	67036	2406.886501472561	0.010755297064
8	67654	2432.739790948063	1.843844753724
8	67976	2444.931486313325	0.567154812994
8	68449	2461.289883170173	0.073837892846
8	68851	2474.889190179294	0.142658692762
8	69682	2503.130446409699	0.22338198789
8	69757	2506.438204691016	0.796030699862
8	69873	2509.548306526341	0.417507858846
8	70336	2526.827812697772	0.173069276474
8	70423	2528.852135898001	0.174109576472
8	70903	2546.251848652145	0.965719050503
8	71074	2553.173608675389	0.47710088522
8	71774	2574.976590992375	0.202932682469
8	71872	2576.89785901881	0.38040899443
8	71936	2579.269382380442	0.188625785072
8	72068	2584.218030658818	0.369380435155
8	72153	2587.057570021373	0.029122471625
8	72188	2588.345088262027	0.018715272545
8	72436	2598.030139228565	0.253989496533
8	73208	2627.294714280888	1.85225683877
8	74871	2688.939841403526	0.639678662363
8	75046	2695.649704455035	1.043418673489
8	75114	2697.929356046405	0.469551108493
8	75362	2704.562997855265	0.328518287011
8	75561	2710.077403275739	1.417988162167
8	75699	2715.326676650022	0.118449611687
8	75706	2715.382310095381	0.053562626982
8	75820	2720.834208122384	0.729294581744
8	75981	2725.769982291575	0.110125399802
8	76254	2734.934535043612	0.348005572252
8	76331	2737.71590955626	0.612476435477
8	77084	2765.393134991857	0.027565405576
8	77129	2766.457787624158	0.121023246217
8	77248	2770.864399607539	0.643615317454
8	77917	2795.290463912123	0.274665474324
8	78893	2827.112958171088	0.098855674272
8	78964	2829.672826618483	0.098352511831
8	79040	2831.993733473487	0.633987409495
8	79069	2832.676854603419	0.006603608156
8	79345	2842.737666376217	0.187974822689
8	79513	2847.599948996476	0.005286092634
8	79802	2855.799252025505	0.799776258921
8	79901	2859.63271430336	1.385300847208
8	80542	2886.259144030223	0.099681794426
8	80563	2886.48255051811	0.185998535679
8	80615	2887.181178054094	0.647704372327
8	80662	2888.431131453228	0.294846392174
8	80676	2888.581919540429	0.017921081834
8	80706	2889.512267198421	0.874701942575
8	80917	2897.431576651505	0.033950979294
8	81040	2901.52052687992	0.451273979767
8	81101	2902.875479877086	0.657756590873
8	81466	2915.376990621471	0.43515215462
8	81582	2919.013326099746	0.035104175973
8	81831	2927.882450403885	0.293226456808
8	81890	2929.411439761446	0.036341497591
8	82344	2944.17039307	0.799410422648
8	83202	2972.391970981832	0.228098613276
8	83229	2972.783471404829	0.33544824917
8	83869	2994.306801155749	0.335409338481
8	83996	2999.699976463072	0.177413148065
8	84049	3001.669981377841	0.121393243231
8	85337	3047.809759798845	0.860985366409
8	85897	3068.642776352729	0.583242624378
8	85915	3068.722878459416	0.057888227269
8	85962	3069.503054656472	0.73018539852
8	86162	3076.411407815309	1.17416128031
8	86550	3091.8129873213	0.462063886622
8	87255	3119.079111157963	0.63170198522
8	87606	3134.104973775517	0.135006269405
8	88104	3154.424013363822	0.367596357477
8	88240	3160.75686733403	0.834813873897
8	88725	3179.203882863524	0.59127661856
8	89319	3204.302815319085	0.189983290029
8	89558	3212.285917973855	0.305551282363
8	89596	3212.543136614065	0.126685458734
8	89707	3216.599375355359	1.119679815597
8	90328	3238.11282387739	0.164496248728
8	90968	3264.660564370267	0.583565448531
8	91126	3269.330245199923	0.35955772636
8	91255	3274.290725855784	0.132210226109
8	91321	3276.160104402124	0.271072518198
8	91458	3281.237833938887	0.543094086985
8	92067	3305.864900126317	2.818629602907
8	92189	3309.998849148009	0.164504175532
8	92316	3313.237470238811	0.607198446862
8	93128	3346.241233599577	0.556553800954
8	93674	3370.079633986209	0.151353358632
8	93744	3371.894331569069	0.608558854537
8	93807	3373.56359244645	0.27953766579
8	93860	3374.871317257483	0.020609849327
8	93998	3379.758078376434	1.243631111563
8	94195	3385.918142224282	0.760205479717
8	94543	3398.413912848386	0.140791211688
8	94647	3401.02477393273	0.030275828252
8	94798	3406.817387873486	0.003341446936
8	95008	3413.425829734182	0.743987244573
8	95129	3415.530242814293	1.501024815045
8	95232	3418.986378716389	0.078309845102
8	95297	3420.809514166749	0.643207148433
8	95658	3434.122511802524	0.076440916982
8	96229	3455.581249523899	0.085879035199
8	96537	3465.303415767761	0.432027247722
8	96803	3476.018418205972	0.290548347518
8	96922	3479.784314779906	0.170751601599
8	97049	3483.792743396324	0.237902538205
8	97583	3501.920781480522	0.159445120131
8	98078	3518.186053042759	0.072615691732
8	98762	3543.588854009701	0.508163774287
8	98962	3548.414213836098	0.543570597099
8	99414	3564.750027688072	0.334965734573
8	99419	3564.937363714889	0.187336026817
9	1849	69.467560742665	0.079788440303
9	2475	90.058473860069	0.060707429441
9	3652	134.326051214353	0.744361772342
9	5285	192.200004817274	0.519760426047
9	5377	194.413329721381	0.133730861338
9	5480	196.477589870852	1.080010755099
9	5635	202.712835322531	0.420876488033
9	6755	245.60708901476	0.573116999795
9	7517	273.53815905338	0.170305020247
9	8295	307.548301537703	0.537964728789
9	8352	309.386533668232	0.209863302807
9	8697	321.213630640743	0.058412658257
9	8901	327.835634754277	1.040379412031
9	10094	366.193163702758	0.287466745719
9	10739	387.863412080758	0.016759845502
9	11134	398.819207920834	0.133278452687
9	12140	434.295200459219	0.91597077316
9	13332	475.190053055518	0.068752350872
9	16401	598.512421516137	0.138581167677
9	16633	606.720913505043	0.035811890009
9	18799	683.76439038758	0.157455959806
9	19611	713.504297525453	0.084102257241
9	21718	791.680839050744	0.104037376993
9	22349	814.532516108292	1.033963429952
9	23475	855.129917778309	0.014532977281
9	23722	861.380311389867	0.544965465365
9	24329	881.521102950091	0.577836790933
9	24955	905.337260213779	0.444078560012
9	26202	952.538995812678	0.022718140389
9	26963	980.659174682405	1.84134188055
9	27286	988.332796503773	0.079765779071
9	27353	989.820708880354	0.102072298319
9	29483	1060.09522984008	0.154925017517
9	31059	1121.145499543083	0.620109449969
9	31414	1132.733154099567	0.106441764684
9	33357	1203.55402862567	1.660141488303
9	37160	1335.033032403636	0.309757023138
9	40828	1471.94700132588	0.749116921649
9	43777	1577.656035037687	0.620074216087
9	43941	1581.911591200818	0.520666644801
9	46083	1666.737189874853	0.409697829256
9	46581	1682.636154187774	0.208889304022
9	46929	1694.458913436993	0.485345890777
9	49605	1794.294148940236	0.116198765751
9	50184	1814.499830385016	0.018468009666
9	50268	1816.369512854432	0.480218405769
9	50704	1834.994001257587	0.22722141967
9	50914	1840.636608231576	1.904886459391
9	51017	1843.71272965844	0.263796354841
9	51027	1843.943021430244	0.113557947203
9	51731	1867.759304953704	0.21729647489
9	53615	1931.002630847661	0.638941109511
9	56484	2042.394219964067	0.216681594279
9	56699	2047.334532056055	0.390846682577
9	57975	2090.465356897018	0.060764279072
9	58279	2099.644537290751	0.010014112154
9	58736	2114.163561377598	0.161199106792
9	58968	2122.525314261023	0.339370540718
9	59356	2134.123945822013	0.129134987437
9	60860	2186.232466238222	1.243518270256
9	61310	2202.78702999609	0.095168138669
9	61331	2203.212505909052	0.145924051655
9	62463	2245.057252096812	0.898462796572
9	62647	2251.83488201744	0.144536503004
9	62713	2252.813962603351	0.404530955053
9	63306	2273.317329773809	0.067898066612
9	64535	2313.469300485797	1.89036011396
9	66279	2374.910276254066	0.295279224964
9	66437	2380.3703239565	1.800545689291
9	70919	2546.809266508329	1.190441378569
9	71764	2574.913035745121	0.091671140497
9	71863	2576.678590802893	0.102974702727
9	75026	2694.828970855094	0.217278430098
9	75739	2715.967436864059	0.645264407212
9	76261	2735.490747766091	0.880720943498
9	79355	2843.15184057808	0.527479512614
9	80606	2887.093974674508	0.311880802
9	80693	2888.998068804472	0.584590248774
9	81067	2902.155952546348	0.838576117896
9	81098	2902.644249215352	0.287904355703
9	81857	2928.31266553495	0.675895689232
9	85314	3047.406265766317	0.408444883741
9	85324	3047.444838828844	0.036781149309
9	85912	3068.714436933405	0.314529832912
9	85940	3069.111254820388	0.252960593565
9	86118	3075.399165434198	0.090617287069
9	87632	3135.262712745243	1.247878667139
9	88712	3178.895446388037	0.277977893534
9	89572	3212.406039856173	0.205894738785
9	90975	3264.915830680697	0.826395891107
9	91123	3269.253697996006	0.245509291133
9	92295	3313.046182737527	0.309868737724
9	93680	3370.119116066672	0.116180485511
9	94254	3387.824392830088	2.63605087162
9	94549	3398.468927453207	0.099794629639
9	95076	3414.303388393766	0.246724181026
9	95126	3415.527335722519	1.223947328753
9	95285	3420.443216753669	0.251138034595
9	97062	3484.01374891819	0.390402419519
9	98090	3518.344357352582	0.193270825289
9	99429	3565.083184178769	0.642404616535
10	3658	134.4466809229	0.714647684766
10	5391	194.776290088701	0.440333322862
10	5444	195.64660551907	0.012298963688
10	5654	203.233097885072	0.92930561373
10	8869	327.153271614694	0.215686553249
10	8884	327.566339586183	0.413067971489
10	12125	433.995661740229	0.116869998452
10	18823	684.248353032984	0.607395596037
10	21705	791.602695406161	0.001398527555
10	22385	815.485549398129	1.942607082581
10	24338	881.616420176309	0.593771946375
10	24945	905.132521846212	0.225593568544
10	31443	1133.66598225234	0.965595398077
10	40841	1472.497695605091	1.154948225383
10	46086	1666.952795720743	0.620440671554
10	46587	1683.161226455599	0.693856546195
10	46962	1695.030026418886	1.02342033156
10	50258	1816.340023736726	0.406978544144
10	50902	1840.107347106958	0.004277800071
10	51014	1843.697936219082	0.017845873176
10	53597	1930.429258626368	0.055974219481
10	60834	2185.486902089765	0.486033638895
10	62460	2244.95014642421	0.718234684649
10	63315	2273.428205493746	0.117954012302
10	66293	2375.165875131867	0.548894896635
10	70909	2546.341641818674	0.58490238372
10	80625	2887.305615803438	0.479396446558
10	81834	2927.93101906515	0.17456970675
10	85331	3047.717886400401	0.637846781551
10	85933	3068.999087649866	0.063480802064
10	88709	3178.77051463865	0.114530479627
10	95086	3414.373047010325	0.253323447757
10	95294	3420.730353114439	0.448492280195
10	99435	3565.187288233446	0.567550691304
11	8871	327.153271614694	0.113089852129
11	22310	813.678028221511	0.105599924721
11	22317	813.910256612822	0.30530359644
11	22324	814.126336380044	0.488093349399
11	22329	814.1739675102	0.49689272121
11	22334	814.180168693833	0.292420134718
11	22341	814.377582899053	0.256541832696
11	22346	814.521124276708	0.248699352605
11	40819	1471.882626158895	0.100280628213
11	46916	1694.180161883483	0.078425875002
11	50255	1816.262635235304	0.039485885427
11	60799	2185.108651337647	0.105813936122
11	60804	2185.247453233142	0.156199053568
11	60811	2185.288947222877	0.030936921269
11	60820	2185.323360655753	0.033364331696
11	60825	2185.370501457974	0.062350246235
11	70884	2545.788147484694	0.018756393992
11	95069	3414.250169530022	0.024397629281
11	95078	3414.303388393766	0.049801027081
11	95083	3414.329574000323	0.040651381084
11	99409	3564.633174390907	0.011913514541
11	99416	3564.750027688072	0.100426079693

