version 2
run Net1-0-20241212-14:50:24-3945
attr configname Net1
attr datetime 20241212-14:50:24
attr experiment Net1
attr inifile omnetpp.ini
attr iterationvars ""
attr iterationvarsf ""
attr measurement ""
attr network Net
attr processid 3945
attr repetition 0
attr replication #0
attr resultdir results
attr runnumber 0
attr seedset 4
param **.source*.avgInterArrivalTime 0.5s
param **.queue*.avgServiceTime 0.15s
param **.queuerand*.avgServiceTimer 0.2s
param **.queue*.LCFS false

vector 0 Net.queue1 qlen:vector ETV
attr interpolationmode sample-hold
attr title "queue length, vector"
vector 1 Net.queuerand1 qlenr:vector ETV
attr interpolationmode sample-hold
attr title "queue length, vector"
vector 2 Net.queuerand1 busyr:vector ETV
attr interpolationmode sample-hold
attr title "server busy state, vector"
vector 3 Net.queue1 queueingTime:vector ETV
attr interpolationmode none
attr title "queueing time at dequeue, vector"
attr unit s
vector 4 Net.queue1 responseTime:vector ETV
attr interpolationmode none
attr title "response time at end of service, vector"
attr unit s
vector 5 Net.queuerand1 queueingTimer:vector ETV
attr interpolationmode none
attr title "queueing time at dequeue, vector"
attr unit s
vector 6 Net.queuerand1 responseTimer:vector ETV
attr interpolationmode none
attr title "response time at end of service, vector"
attr unit s
vector 7 Net.sink1 lifetime:vector ETV
attr interpolationmode none
attr title "lifetime of arrived msg, vector"
attr unit s
vector 8 Net.sink1 arrivedMsg:vector ETV
attr interpolationmode none
attr title "number of arrived msg, vector"
0	0	0	0
0	10	1.80086728053	1
0	11	2.24612050273	0
0	44	5.981452177353	1
0	45	6.011904035665	0
0	94	9.537694033271	1
0	96	9.634402212839	2
0	97	9.641432473221	1
0	100	9.726346915724	2
0	103	9.942788608083	1
0	105	10.021538410583	0
0	154	13.136471665803	1
0	155	13.16692786123	0
0	172	13.739899563234	1
0	173	13.741211745749	0
0	176	13.764182542801	1
0	178	13.989560445055	2
0	179	14.079998644396	1
0	182	14.124246687008	2
0	183	14.232231881361	1
0	185	14.264108128729	0
0	238	17.805291009534	1
0	240	17.92787714597	2
0	241	17.953119163992	1
0	245	18.19989178793	0
0	262	20.563042308118	1
0	263	20.628305191779	0
0	268	21.039730864364	1
0	269	21.078732804051	0
0	274	21.268191389761	1
0	276	21.293067126173	2
0	277	21.29772913276	1
0	279	21.315178554283	0
0	292	21.729774239805	1
0	293	21.939158121919	0
0	328	25.797903036643	1
0	330	26.117821244265	2
0	331	26.207952182626	1
0	333	26.282782089377	0
0	336	26.311105371256	1
0	337	26.427497888232	0
0	358	27.870264994597	1
0	359	28.015352564459	0
0	382	29.85010120708	1
0	383	29.912835212407	0
0	400	31.285513566463	1
0	401	31.39712460641	0
0	428	35.283403395175	1
0	430	35.327481638136	2
0	432	35.347940096799	3
0	435	35.807964535768	2
0	437	35.810379564459	1
0	440	35.89074237809	2
0	441	35.927935666945	1
0	443	35.933105381326	0
0	508	40.934068049089	1
0	509	40.938173139196	0
0	538	44.422927670862	1
0	539	44.559482661291	0
0	580	51.245290776318	1
0	581	51.310678366134	0
0	584	51.409898839694	1
0	586	51.455362326722	2
0	587	51.557865381692	1
0	589	51.572162148832	0
0	608	52.620618727822	1
0	609	52.637019197962	0
0	628	55.166464158844	1
0	629	55.187643867096	0
0	646	56.824865791721	1
0	647	56.925533593295	0
0	652	57.062148815213	1
0	653	57.067473557664	0
0	706	67.357622622009	1
0	707	67.381065046966	0
0	748	70.859436663086	1
0	750	70.961389908033	2
0	752	70.990843601768	3
0	754	71.04798323844	4
0	755	71.170221046226	3
0	757	71.184465321873	2
0	759	71.296927524866	1
0	764	71.445911204397	2
0	766	71.619175048467	3
0	767	71.786482296253	2
0	774	71.976775463535	3
0	777	72.175397064657	2
0	779	72.191292875187	1
0	781	72.277243516201	0
0	784	72.643626930864	1
0	785	72.696515235218	0
0	820	75.164503901056	1
0	821	75.172141931946	0
0	830	75.295520007642	1
0	833	75.338152472099	0
0	838	75.55411816118	1
0	839	75.643524652073	0
0	844	75.771365299254	1
0	845	75.795170099589	0
0	850	75.842632343677	1
0	851	75.846721184738	0
0	860	76.582698562667	1
0	861	76.585433355742	0
0	898	78.442985918988	1
0	899	78.4788443849	0
0	914	79.32703753521	1
0	916	79.33781783976	2
0	917	79.41602224133	1
0	921	79.547553854132	0
0	1024	91.454945296559	1
0	1025	91.460432306642	0
0	1036	93.144992047912	1
0	1038	93.170283439946	2
0	1039	93.208335179421	1
0	1041	93.240892844204	0
0	1204	109.085531943665	1
0	1205	109.107462853248	0
0	1216	109.427247357485	1
0	1218	109.567555524283	2
0	1219	109.72024793283	1
0	1223	109.958629125851	0
0	1420	129.891038434894	1
0	1421	129.914940952322	0
0	1444	131.810140582359	1
0	1445	131.9148198275	0
0	1462	132.631478000674	1
0	1464	132.752807007004	2
0	1465	132.780330036272	1
0	1467	132.819866193811	0
0	1470	132.856745298363	1
0	1474	132.921191390777	2
0	1477	133.150488852918	1
0	1479	133.266854622549	0
0	1530	136.669825500682	1
0	1536	137.000735041351	2
0	1537	137.116487028418	1
0	1540	137.132961559789	2
0	1542	137.384543202278	3
0	1543	137.453170849481	2
0	1547	137.495784635759	1
0	1549	137.542356079918	0
0	1642	143.666731127633	1
0	1643	144.164729329975	0
0	1656	144.936887693439	1
0	1660	145.108657999977	2
0	1661	145.172848976108	1
0	1664	145.35122100849	2
0	1667	145.507913921049	1
0	1671	145.606609263756	0
0	1696	147.210612745318	1
0	1697	147.311923186302	0
0	1700	147.444838648439	1
0	1703	147.653788027094	0
0	1756	154.846103161751	1
0	1757	155.281900576551	0
0	1786	159.826913840767	1
0	1787	159.914944972109	0
0	1790	160.134538444259	1
0	1791	160.250182579238	0
0	1796	160.438099248004	1
0	1799	160.502775878864	0
0	1808	160.967947771299	1
0	1810	161.12523861362	2
0	1813	161.302918540575	1
0	1816	161.365390853182	2
0	1818	161.398941411158	3
0	1819	161.434641636136	2
0	1821	161.444362709627	1
0	1823	161.666331762713	0
0	1894	169.248877807566	1
0	1896	169.345727944661	2
0	1898	169.352724674064	3
0	1900	169.375004738981	4
0	1901	169.378941426776	3
0	1903	169.379077489736	2
0	1907	169.942311200368	1
0	1909	170.221698882528	0
0	1924	171.898884308748	1
0	1925	171.968940538849	0
0	1928	172.008477557557	1
0	1929	172.100776172997	0
0	1954	175.042129574203	1
0	1955	175.069115362102	0
0	1966	175.63013640794	1
0	1967	175.908713212887	0
0	1978	176.718710373471	1
0	1979	176.740633896069	0
0	1984	176.85510359167	1
0	1985	177.441776838784	0
0	2002	178.885594037988	1
0	2003	179.201513362997	0
0	2026	182.101175284164	1
0	2027	182.11420322758	0
0	2048	184.058311806898	1
0	2051	184.202545140436	0
0	2158	194.155015896479	1
0	2160	194.200144257204	2
0	2161	194.219166207706	1
0	2164	194.225080613247	2
0	2165	194.323353263735	1
0	2167	194.326000731392	0
0	2188	196.028603316027	1
0	2190	196.064671138204	2
0	2192	196.094117831219	3
0	2193	196.110208255953	2
0	2195	196.112394190585	1
0	2197	196.181338911759	0
0	2206	196.412451517452	1
0	2207	196.479501946929	0
0	2210	196.482469093455	1
0	2211	196.528215588805	0
0	2236	198.206481775816	1
0	2237	198.460799355779	0
0	2248	199.231827978484	1
0	2249	199.321442343834	0
0	2266	199.793712019092	1
0	2267	199.844808650545	0
0	2350	207.076640401112	1
0	2351	207.089852762851	0
0	2360	207.747394365454	1
0	2363	207.817284507889	0
0	2372	208.718473964359	1
0	2375	208.863084128108	0
0	2380	208.973016088214	1
0	2382	208.981672857707	2
0	2383	209.006243045558	1
0	2385	209.067048219049	0
0	2388	209.179753291667	1
0	2391	209.288268324325	0
0	2438	214.068845689439	1
0	2439	214.089998467469	0
0	2442	214.093811040679	1
0	2443	214.110286394948	0
0	2498	217.191604739292	1
0	2499	217.441133962787	0
0	2524	220.586176599218	1
0	2525	220.601026507499	0
0	2536	221.528505286418	1
0	2537	221.624135287887	0
0	2554	222.503401858382	1
0	2555	222.676633747281	0
0	2602	227.105669504765	1
0	2603	227.132190255991	0
0	2606	227.169143569129	1
0	2607	227.200222269231	0
0	2614	227.3903497169	1
0	2616	227.576448683921	2
0	2617	227.63376034032	1
0	2619	227.649782526422	0
0	2632	230.811675758431	1
0	2633	230.87292696843	0
0	2662	234.495418549795	1
0	2664	234.592255955057	2
0	2666	234.69318379204	3
0	2668	234.694709105736	4
0	2669	234.858671979548	3
0	2671	234.974697231774	2
0	2677	235.139626067875	1
0	2681	235.343464285482	0
0	2710	240.170161629797	1
0	2712	240.317961846047	2
0	2713	240.395150324755	1
0	2715	240.534332943357	0
0	2728	241.692129155118	1
0	2729	241.778774821605	0
0	2752	243.35910651868	1
0	2754	243.454413530744	2
0	2755	243.845502218102	1
0	2757	243.952998890825	0
0	2770	244.282813085465	1
0	2771	244.283891433128	0
0	2774	244.335316199923	1
0	2777	244.605241334314	0
0	2798	245.668725118855	1
0	2799	245.670753153451	0
0	2802	246.117619764608	1
0	2803	246.163965110147	0
0	2806	246.297003474291	1
0	2807	246.356914331749	0
0	2812	246.436475069323	1
0	2813	246.436679712664	0
0	2866	250.518794525214	1
0	2867	250.865027338137	0
0	2998	265.070297081967	1
0	3000	265.129779330138	2
0	3001	265.210883655416	1
0	3003	265.216930268696	0
0	3044	267.925703619395	1
0	3045	268.06607711151	0
0	3056	268.860629816098	1
0	3061	268.92713361594	0
0	3080	270.413551141117	1
0	3081	270.505239738802	0
0	3092	270.94432065551	1
0	3093	270.946954566085	0
0	3116	271.842391500626	1
0	3117	271.981369437925	0
0	3146	273.686637725594	1
0	3150	273.734815835935	2
0	3151	273.798106518675	1
0	3153	273.901718204389	0
0	3178	275.218421840863	1
0	3180	275.40963607445	2
0	3181	275.431147432357	1
0	3183	275.448689792105	0
0	3214	278.201570334368	1
0	3215	278.660726969681	0
0	3226	279.192328972789	1
0	3228	279.411031314848	2
0	3229	279.479287761447	1
0	3232	279.495732688259	2
0	3235	279.730059743562	1
0	3237	279.761370161613	0
0	3248	280.369460589743	1
0	3249	280.398395686866	0
0	3298	283.846470889402	1
0	3299	283.846517397434	0
0	3304	283.886251479339	1
0	3305	283.980501109269	0
0	3350	288.717568296423	1
0	3351	288.778109938671	0
0	3370	289.264469802197	1
0	3372	289.287344579868	2
0	3373	289.353259168772	1
0	3375	289.435665516469	0
0	3394	292.055021750939	1
0	3395	292.080698451317	0
0	3400	292.280937504272	1
0	3401	292.282771100638	0
0	3418	293.722001310114	1
0	3420	293.752864834442	2
0	3422	293.85004380526	3
0	3423	293.888629917736	2
0	3425	293.890550587657	1
0	3427	294.00289493569	0
0	3462	297.712049412025	1
0	3463	297.722137123456	0
0	3544	303.734043376644	1
0	3545	304.164732496143	0
0	3572	305.964081223165	1
0	3573	305.974020613077	0
0	3634	312.505202336217	1
0	3635	312.671975783722	0
0	3644	312.919761138626	1
0	3647	313.084733611806	0
0	3698	317.882141681031	1
0	3701	317.910304668025	0
0	3718	319.630851739187	1
0	3720	319.800277949031	2
0	3721	319.945315971505	1
0	3725	319.969603293009	0
0	3760	325.215083248909	1
0	3761	325.358051854985	0
0	3772	325.869730248363	1
0	3773	325.941826698493	0
0	3776	325.972217732779	1
0	3777	325.990006984729	0
0	3782	326.142522753026	1
0	3783	326.15956558019	0
0	3814	329.415744487854	1
0	3816	329.447968193302	2
0	3817	329.468214692162	1
0	3819	329.499788415623	0
0	3824	329.594191821379	1
0	3825	329.624082527416	0
0	3828	329.630369100402	1
0	3833	330.146969568723	0
0	3836	330.151376668614	1
0	3839	330.396496449546	0
0	3844	330.650046907764	1
0	3845	330.698538876955	0
0	3856	332.067727882726	1
0	3858	332.381310073882	2
0	3859	332.497705325737	1
0	3863	332.630584553346	0
0	3872	332.955645373421	1
0	3875	333.226189331376	0
0	3910	336.250042648195	1
0	3912	336.283258960295	2
0	3913	336.286341834037	1
0	3915	336.313359454009	0
0	3952	340.290095252845	1
0	3954	340.392552772493	2
0	3955	340.446051876717	1
0	3957	340.459860234905	0
0	4006	345.98589863277	1
0	4007	346.262319038123	0
0	4046	350.390301951825	1
0	4048	350.559518622174	2
0	4051	350.726439955745	1
0	4053	350.770363485244	0
0	4060	351.422733361508	1
0	4061	351.503345160331	0
0	4074	352.494799362246	1
0	4077	352.831065540612	0
0	4192	366.826553252983	1
0	4194	367.085367295178	2
0	4195	367.166177366445	1
0	4197	367.167191600662	0
0	4214	368.226797135554	1
0	4215	368.277319162588	0
0	4228	368.629297878951	1
0	4229	368.674035155259	0
0	4236	368.74516323213	1
0	4240	369.165295810132	2
0	4242	369.332478494501	3
0	4243	369.467322072578	2
0	4249	369.601723002848	1
0	4251	369.632735196302	0
0	4330	378.562002155093	1
0	4331	378.57103562377	0
0	4354	381.187313372542	1
0	4356	381.495548456094	2
0	4357	381.592057048637	1
0	4361	381.710498068593	0
0	4390	383.24561190064	1
0	4391	383.362941932942	0
0	4396	383.567544286583	1
0	4398	383.61468102802	2
0	4399	383.690313334871	1
0	4401	383.695030113218	0
0	4414	386.512463756962	1
0	4416	386.757774357039	2
0	4417	386.765212905146	1
0	4419	386.879748697294	0
0	4432	387.455160829599	1
0	4433	387.456302446181	0
0	4468	394.772415526241	1
0	4469	394.799869911451	0
0	4510	397.47042624374	1
0	4511	397.632814401554	0
0	4522	398.987900832667	1
0	4523	399.023944601024	0
0	4588	403.608480823548	1
0	4589	403.821503376672	0
0	4592	403.830970047124	1
0	4593	403.906988429699	0
0	4612	405.457386350375	1
0	4613	405.505606107764	0
0	4642	410.45056129436	1
0	4643	410.508194568803	0
0	4684	416.773765963686	1
0	4685	416.890554106422	0
0	4726	420.164820366396	1
0	4727	420.176513464358	0
0	4744	421.532053510732	1
0	4745	421.637524170549	0
0	4750	421.690177684593	1
0	4751	421.730012437317	0
0	4754	421.766414618292	1
0	4756	421.795903613589	2
0	4757	421.805181623312	1
0	4760	421.809156394079	2
0	4763	421.897437667802	1
0	4765	421.948537395079	0
0	4772	422.176529319431	1
0	4774	422.217437549442	2
0	4775	422.275865776814	1
0	4783	422.723097708828	0
0	4786	422.784900122793	1
0	4790	422.880552821474	2
0	4793	422.933520194089	1
0	4795	422.971943645086	0
0	4864	431.611990973059	1
0	4866	431.6349359845	2
0	4867	431.754541437053	1
0	4869	431.79639809581	0
0	4886	432.941380560922	1
0	4887	432.954485722845	0
0	4912	437.997047205625	1
0	4913	438.048192947116	0
0	4952	440.910119274075	1
0	4953	440.923217452316	0
0	4960	441.228993362655	1
0	4962	441.305364538219	2
0	4963	441.339465885578	1
0	4966	441.343756898457	2
0	4969	441.394955727213	1
0	4971	441.456402632263	0
0	4982	442.006401436626	1
0	4983	442.018054642311	0
0	5036	445.938034915891	1
0	5037	445.979607494783	0
0	5048	446.367901785121	1
0	5050	446.369458869363	2
0	5051	446.426998001109	1
0	5057	446.57653963286	0
0	5104	449.869922074723	1
0	5105	450.017197647567	0
0	5112	450.24693357575	1
0	5113	450.258016716687	0
0	5194	456.148689405274	1
0	5195	456.162571406651	0
0	5200	456.393007990397	1
0	5201	456.434956876797	0
0	5216	457.679400546	1
0	5217	457.792601034917	0
0	5220	457.985167429488	1
0	5221	458.090665784206	0
0	5248	459.643441379256	1
0	5249	459.710583984013	0
0	5254	459.932371179137	1
0	5256	460.159368341464	2
0	5257	460.205482282607	1
0	5259	460.28375451722	0
0	5284	463.782289095353	1
0	5286	464.168817232443	2
0	5287	464.279151984519	1
0	5289	464.288365303168	0
0	5314	465.605459017451	1
0	5316	465.629852244705	2
0	5317	465.646007054583	1
0	5320	465.690472178382	2
0	5323	466.04504661762	1
0	5325	466.166877770943	0
0	5350	467.15853809394	1
0	5357	467.597231504546	0
0	5368	467.966416903343	1
0	5369	468.001619529179	0
0	5372	468.019355275849	1
0	5373	468.220298791865	0
0	5404	471.101469533635	1
0	5405	471.177209014404	0
0	5408	471.284698628577	1
0	5410	471.294997247478	2
0	5411	471.357866174188	1
0	5414	471.432445753342	2
0	5417	471.48326672847	1
0	5419	471.504764976816	0
0	5446	473.037658696151	1
0	5447	473.267338451453	0
0	5450	473.338701842918	1
0	5451	473.356513562261	0
0	5464	473.709455053619	1
0	5465	473.767002945105	0
0	5470	474.102779704092	1
0	5472	474.139747960464	2
0	5473	474.4024878969	1
0	5477	474.480685316965	0
0	5542	479.703978994437	1
0	5543	479.717330982337	0
0	5554	480.77631959861	1
0	5555	480.798933507714	0
0	5566	481.932135081972	1
0	5568	482.061007128841	2
0	5569	482.100186126595	1
0	5571	482.173823116193	0
0	5584	482.573613732107	1
0	5585	482.595217432097	0
0	5596	482.915050386699	1
0	5597	483.107984993094	0
0	5602	483.234496738468	1
0	5603	483.247157571604	0
0	5638	489.550037524447	1
0	5639	489.57237880886	0
0	5656	490.416351403309	1
0	5658	490.513685857888	2
0	5659	490.530299768167	1
0	5664	490.766218581955	2
0	5665	490.768080887564	1
0	5669	490.853609568024	0
0	5672	490.878702651769	1
0	5673	490.957302327788	0
0	5686	491.681097235979	1
0	5687	491.77336355159	0
0	5698	492.426514760214	1
0	5699	492.43384313844	0
0	5750	497.913232612127	1
0	5752	497.975111652684	2
0	5754	498.112646028483	3
0	5756	498.126532743984	4
0	5757	498.126545965575	3
0	5761	498.473837780783	2
0	5764	498.573513719915	3
0	5767	498.616188951828	2
0	5772	498.745750729668	3
0	5773	498.805775503404	2
0	5775	498.86941957872	1
0	5780	498.918037211808	2
0	5781	498.956050174135	1
0	5783	499.046104595328	0
0	5806	500.419849373364	1
0	5808	500.448447062202	2
0	5809	500.492315469184	1
0	5811	500.540197968832	0
0	5836	503.566770076138	1
0	5837	503.919580580064	0
0	5840	503.93506067666	1
0	5841	504.050981865248	0
0	5866	505.127559912515	1
0	5867	505.183761198731	0
0	5878	505.903769133628	1
0	5880	505.955688532367	2
0	5881	505.978419962431	1
0	5883	506.006200215872	0
0	5938	509.827159675059	1
0	5939	509.921396684864	0
0	5980	513.726686685471	1
0	5981	513.970713619132	0
0	5984	514.166478126355	1
0	5987	514.554225595048	0
0	5998	515.312861395249	1
0	5999	515.443966439013	0
0	6002	515.563173315783	1
0	6004	515.595553065768	2
0	6005	515.698068841288	1
0	6007	515.827101802459	0
0	6014	516.138186336644	1
0	6015	516.207601926809	0
0	6044	517.4027080788	1
0	6047	517.46055066601	0
0	6088	519.53911989535	1
0	6089	519.590175041803	0
0	6100	520.956756647273	1
0	6101	520.982764300719	0
0	6112	522.177985398788	1
0	6114	522.649141428317	2
0	6115	522.801340913944	1
0	6120	523.293138506808	2
0	6121	523.440301299071	1
0	6126	523.751002651508	2
0	6127	523.788282804828	1
0	6132	523.948040599519	2
0	6133	524.10059995983	1
0	6135	524.126900283091	0
0	6172	527.638310329821	1
0	6173	527.764002500286	0
0	6220	531.369238771795	1
0	6221	531.429028366211	0
0	6268	536.110546932928	1
0	6269	536.144915947829	0
0	6284	537.077898780168	1
0	6287	537.207011974621	0
0	6304	538.037596451135	1
0	6305	538.229514527393	0
0	6310	538.262574335556	1
0	6311	538.630307092944	0
0	6318	538.856169391397	1
0	6319	538.908702677457	0
0	6334	541.130917170897	1
0	6335	541.142243660227	0
0	6370	544.128859047616	1
0	6372	544.201102920692	2
0	6374	544.298300119418	3
0	6375	544.544405851391	2
0	6377	544.561325184	1
0	6379	544.579725047427	0
0	6390	545.116049715266	1
0	6393	545.133380421134	0
0	6416	546.681267560232	1
0	6418	546.761053994519	2
0	6420	546.856552624291	3
0	6421	546.868445550172	2
0	6426	546.963562952506	3
0	6427	547.115244024383	2
0	6429	547.159009685564	1
0	6435	547.477764924001	0
0	6486	551.559211767781	1
0	6490	551.583451267877	2
0	6492	551.69564598314	3
0	6493	552.202973195649	2
0	6495	552.227437272647	1
0	6502	552.425306590614	2
0	6503	552.573544871378	1
0	6508	552.818587162652	2
0	6511	552.895085936778	1
0	6513	552.909746471276	0
0	6562	555.655306994455	1
0	6563	555.833017354384	0
0	6596	558.869518218999	1
0	6599	558.991515163214	0
0	6620	560.080638513074	1
0	6622	560.095896743458	2
0	6623	560.119456928818	1
0	6630	560.390453657076	2
0	6631	560.400498351885	1
0	6633	560.77735043723	0
0	6640	560.844089604495	1
0	6641	560.878591011883	0
0	6652	561.807778698722	1
0	6654	561.809247712113	2
0	6656	561.84269423935	3
0	6657	561.869310241611	2
0	6660	561.884563848637	3
0	6661	561.886942200783	2
0	6666	561.953316199509	3
0	6669	562.490889046189	2
0	6674	562.558287281652	3
0	6675	562.56495232576	2
0	6677	562.630925928153	1
0	6681	562.809215848998	0
0	6706	565.306888691132	1
0	6708	565.323718870079	2
0	6709	565.354904829708	1
0	6712	565.421976380337	2
0	6715	565.543103128319	1
0	6718	565.701320679793	2
0	6721	565.731861942699	1
0	6723	565.746010776102	0
0	6726	565.821299303034	1
0	6728	565.934805300653	2
0	6729	565.998792040209	1
0	6731	566.071530440746	0
0	6752	567.161507819829	1
0	6755	567.24029709214	0
0	6796	570.826483596337	1
0	6797	570.836877679262	0
0	6820	572.967214456225	1
0	6821	573.033995036994	0
0	6878	577.53053119888	1
0	6880	577.568667334987	2
0	6881	577.643081837435	1
0	6883	577.651971913177	0
0	6886	577.726942702492	1
0	6887	577.859616010401	0
0	6890	577.915496215974	1
0	6892	577.952687556572	2
0	6895	577.97340078954	1
0	6899	578.016441538401	0
0	6912	578.997638675753	1
0	6914	578.998485537966	2
0	6916	579.084901961103	3
0	6920	579.161443948787	4
0	6921	579.321013772503	3
0	6928	579.45817736513	4
0	6930	579.726659233732	5
0	6931	579.765753466384	4
0	6933	579.855019963324	3
0	6935	579.877108062203	2
0	6937	579.889509805291	1
0	6939	580.200736758254	0
0	6966	581.322669289662	1
0	6967	581.33097733087	0
0	6994	586.085147106392	1
0	6995	586.104814495481	0
0	7018	587.263874387054	1
0	7019	587.456989972377	0
0	7066	590.632576994538	1
0	7068	590.648818500796	2
0	7070	590.671756142813	3
0	7075	591.076899000668	2
0	7080	591.172846205504	3
0	7084	591.682862854809	4
0	7085	591.736416534072	3
0	7088	591.786365250321	4
0	7090	591.863946742313	5
0	7091	591.868504630348	4
0	7095	592.034341595044	3
0	7097	592.066245472952	2
0	7099	592.143512281067	1
0	7101	592.146693480569	0
0	7138	595.505085757743	1
0	7139	595.674802119381	0
0	7156	599.958615639736	1
0	7157	600.009220035311	0
0	7178	601.039877274063	1
0	7181	601.118166362965	0
0	7184	601.399875839443	1
0	7185	601.536263145379	0
0	7192	601.861196659949	1
0	7195	602.017370548869	0
0	7198	602.172794386555	1
0	7201	602.323888942673	0
0	7226	604.105971547426	1
0	7227	604.267932526926	0
0	7236	605.030716150212	1
0	7240	605.109748393641	2
0	7243	605.194281272285	1
0	7245	605.206626760682	0
0	7270	606.433684881251	1
0	7271	606.53264811794	0
0	7354	611.025462576917	1
0	7355	611.282715356942	0
0	7380	612.171955530107	1
0	7383	612.425124845235	0
0	7480	623.225977762842	1
0	7481	623.235086505057	0
0	7492	623.703580396043	1
0	7493	623.769004139189	0
0	7522	626.246122829655	1
0	7523	626.408425731069	0
0	7526	626.670522964204	1
0	7527	626.670525612973	0
0	7534	627.189264629742	1
0	7537	627.467338468436	0
0	7546	627.981412709114	1
0	7547	628.208275140628	0
0	7666	642.826809174113	1
0	7668	642.83290476706	2
0	7669	643.065327492444	1
0	7673	643.483866497229	0
0	7692	644.40294903165	1
0	7695	644.575354531129	0
0	7756	652.628535214367	1
0	7757	652.647743059654	0
0	7774	653.154595982308	1
0	7776	653.194929238323	2
0	7777	653.307314258466	1
0	7780	653.330513614721	2
0	7783	653.429218562002	1
0	7788	653.569243268434	2
0	7789	653.584778172843	1
0	7794	653.763275309779	2
0	7795	653.891190474783	1
0	7799	653.973265030562	0
0	7834	657.606389898891	1
0	7835	657.612864272241	0
0	7846	658.291615431729	1
0	7847	658.304949347151	0
0	7934	668.271670313546	1
0	7936	668.274192627041	2
0	7939	668.660957753028	1
0	7941	668.697007302985	0
0	7944	668.758220165378	1
0	7947	668.814120731972	0
0	7966	670.883657218849	1
0	7967	670.957137335482	0
0	7978	671.735410163372	1
0	7979	671.849387141192	0
0	8008	674.010330933435	1
0	8009	674.230138023769	0
0	8018	674.929782736745	1
0	8019	675.001581002882	0
0	8056	678.306634860649	1
0	8058	678.361787446742	2
0	8059	678.525028400079	1
0	8061	678.670723771962	0
0	8080	681.13428661635	1
0	8081	681.184319270405	0
0	8116	684.607995107359	1
0	8117	684.70555588715	0
0	8230	696.238481298177	1
0	8231	696.277511250182	0
0	8240	696.843346844568	1
0	8243	697.099415503388	0
0	8314	704.605438914872	1
0	8316	704.637601785019	2
0	8317	705.196713223485	1
0	8321	705.257416754317	0
0	8332	706.525498878045	1
0	8334	706.565786534334	2
0	8336	706.611202306948	3
0	8337	706.680691970613	2
0	8341	707.053419376597	1
0	8343	707.158540886356	0
0	8348	707.191451662123	1
0	8349	707.262174620662	0
0	8458	716.814977423765	1
0	8459	716.834665618507	0
0	8476	718.589085123403	1
0	8477	718.686060522267	0
0	8500	720.046916897228	1
0	8502	720.148004366402	2
0	8503	720.368658756324	1
0	8505	720.444225308844	0
0	8516	721.10555249912	1
0	8520	721.167325507332	2
0	8521	721.214205558596	1
0	8523	721.290811568429	0
0	8548	724.337942386776	1
0	8549	724.359385641231	0
0	8566	725.465611261121	1
0	8567	725.579634611645	0
0	8572	725.876672586927	1
0	8573	725.979104337344	0
0	8662	734.221748043305	1
0	8663	734.49569794269	0
0	8686	735.803451091051	1
0	8687	735.853534597832	0
0	8710	737.170174765327	1
0	8712	737.390202747767	2
0	8713	737.849175248156	1
0	8715	738.060236029314	0
0	8764	740.938898402423	1
0	8765	740.973653619037	0
0	8772	741.067601999139	1
0	8773	741.084372472856	0
0	8782	741.288772886878	1
0	8784	741.300731089149	2
0	8787	741.540301713666	1
0	8790	741.611052396918	2
0	8797	741.862205982117	1
0	8799	741.874439167617	0
0	8854	746.663313865495	1
0	8855	746.756241802699	0
0	8864	747.372622727558	1
0	8865	747.417015536327	0
0	8896	749.030625906428	1
0	8897	749.169211752572	0
0	8912	750.075246749992	1
0	8914	750.131536386515	2
0	8918	750.716527258986	3
0	8919	750.780390204451	2
0	8922	750.920042348324	3
0	8925	751.174857060563	2
0	8928	751.184169810508	3
0	8930	751.219872627448	4
0	8931	751.229645294546	3
0	8937	751.362639742277	2
0	8939	751.501764952932	1
0	8941	751.517748214387	0
0	8944	751.571479977772	1
0	8948	751.72731873427	2
0	8949	751.748608003862	1
0	8954	751.765334939766	2
0	8956	751.780285718373	3
0	8959	751.885244871369	2
0	8962	751.887276169483	3
0	8963	752.023289175195	2
0	8965	752.027602216665	1
0	8967	752.084117265706	0
0	9004	753.294173400743	1
0	9007	753.525278116928	0
0	9012	753.856562700007	1
0	9013	753.938542646734	0
0	9034	754.828361369667	1
0	9036	754.833752139848	2
0	9037	755.240893863215	1
0	9043	755.457972517739	0
0	9046	755.469096631302	1
0	9047	755.854426594438	0
0	9064	757.118227744424	1
0	9066	757.273934307354	2
0	9067	757.370798770655	1
0	9069	757.414684508237	0
0	9076	757.995384695019	1
0	9077	758.057382897027	0
0	9100	759.923568778647	1
0	9102	760.300528006055	2
0	9103	760.413936905979	1
0	9105	760.41670312081	0
0	9124	761.600822432043	1
0	9126	761.993660092297	2
0	9128	762.003729720708	3
0	9130	762.017761174853	4
0	9131	762.274729419587	3
0	9134	762.295531934534	4
0	9135	762.320428592521	3
0	9137	762.326283058818	2
0	9139	762.411034536998	1
0	9141	762.530259120203	0
0	9184	766.79723393766	1
0	9186	766.969794263563	2
0	9187	766.9871577444	1
0	9190	767.024603045252	2
0	9191	767.036276247259	1
0	9195	767.229131861917	0
0	9232	771.175861187303	1
0	9234	771.194390576758	2
0	9236	771.203655473524	3
0	9237	771.578102636365	2
0	9239	771.855975532027	1
0	9241	771.962647214457	0
0	9280	777.138331853811	1
0	9282	777.334077619501	2
0	9283	777.387734511457	1
0	9285	777.493462771742	0
0	9288	777.533458998511	1
0	9289	777.541226180613	0
0	9304	778.530283627484	1
0	9305	778.594435275982	0
0	9312	778.734215615518	1
0	9313	778.750882314819	0
0	9324	779.123604857809	1
0	9325	779.157200960729	0
0	9382	786.233631212999	1
0	9383	786.308286722258	0
0	9410	788.338704210096	1
0	9413	788.73233993112	0
0	9416	788.749318124233	1
0	9419	789.122286051449	0
0	9440	790.688942242408	1
0	9441	790.716960153604	0
0	9490	795.280894053059	1
0	9491	795.426693992784	0
0	9502	796.06563527138	1
0	9503	796.123841085806	0
0	9538	798.92345829047	1
0	9539	799.155945777729	0
0	9550	800.883232133994	1
0	9551	801.025091695356	0
0	9562	802.106407789473	1
0	9563	802.121413401024	0
0	9574	803.291151435769	1
0	9575	803.53198419234	0
0	9594	804.807178943103	1
0	9598	805.194286131498	2
0	9599	805.209141458159	1
0	9603	805.364845923607	0
0	9646	808.732575648124	1
0	9647	808.986258004076	0
0	9676	810.832021359255	1
0	9677	810.914877055617	0
0	9700	814.0163782482	1
0	9701	814.152603397088	0
0	9736	816.746065746086	1
0	9738	816.782815413393	2
0	9739	816.821636375348	1
0	9743	816.866794986267	0
0	9772	820.983159517421	1
0	9774	820.992826893171	2
0	9775	821.234035235371	1
0	9779	821.614444187808	0
0	9832	824.480565564158	1
0	9833	824.59584613828	0
0	9844	825.173238093911	1
0	9845	825.262947302104	0
0	9874	827.508649752889	1
0	9875	827.52745256592	0
0	9898	831.764629193583	1
0	9899	831.907425177515	0
0	9910	832.73044192566	1
0	9911	832.832993175362	0
0	9914	832.839813270696	1
0	9915	832.851161030274	0
0	9934	836.702200280935	1
0	9935	837.188555757612	0
0	9976	840.110113024363	1
0	9977	840.331018232435	0
0	10018	842.968366558782	1
0	10019	843.029649185063	0
0	10042	844.701400619123	1
0	10043	844.786257655074	0
0	10066	845.559978837126	1
0	10068	845.582682851409	2
0	10069	845.605897710957	1
0	10073	845.669683945814	0
0	10108	848.50143484733	1
0	10110	848.517198536488	2
0	10112	848.579010253216	3
0	10113	848.695778931907	2
0	10118	848.93954726365	3
0	10119	849.08033518525	2
0	10121	849.109790464692	1
0	10123	849.150074570503	0
0	10138	849.972002715948	1
0	10139	850.111753088883	0
0	10204	857.194084599739	1
0	10206	857.249544831069	2
0	10207	857.256704496625	1
0	10212	857.488461376087	2
0	10214	857.628333035422	3
0	10216	857.721603945214	4
0	10217	857.926710209716	3
0	10219	857.94358196607	2
0	10223	857.981282031262	1
0	10226	858.112008727676	2
0	10227	858.585342120924	1
0	10229	858.708062141378	0
0	10358	870.40331828344	1
0	10361	870.934639326785	0
0	10376	871.656684005529	1
0	10378	871.665815774347	2
0	10381	872.237016689696	1
0	10386	872.338970139848	2
0	10387	872.350711334074	1
0	10391	872.383372927964	0
0	10434	877.029900087691	1
0	10438	877.303343619223	2
0	10440	877.440682889494	3
0	10441	877.549977266217	2
0	10443	877.747581361927	1
0	10451	878.251342659027	0
0	10474	879.665414488084	1
0	10475	880.144052708384	0
0	10498	881.758774948238	1
0	10499	881.905590820514	0
0	10516	884.195717840206	1
0	10517	884.228164619549	0
0	10520	884.37195263415	1
0	10524	884.434429625578	2
0	10526	884.472099847336	3
0	10527	884.792462911452	2
0	10532	885.052787370431	3
0	10533	885.054974379852	2
0	10537	885.173163820548	1
0	10539	885.216241183239	0
0	10588	887.553271205247	1
0	10589	887.591949743786	0
0	10636	891.924825908648	1
0	10637	891.934984291544	0
0	10666	895.527385753182	1
0	10667	895.574537691219	0
0	10704	897.469301060872	1
0	10707	897.622884845367	0
0	10738	900.108051582793	1
0	10739	900.165744813201	0
0	10756	901.236381339792	1
0	10757	901.284436297717	0
0	10768	901.955253694095	1
0	10769	902.079305819587	0
0	10780	902.745910767935	1
0	10781	902.93505096174	0
0	10784	902.974656158811	1
0	10785	903.191000364303	0
0	10862	908.211390822016	1
0	10864	908.232907080832	2
0	10866	908.283984355781	3
0	10867	908.440648011712	2
0	10871	908.523320167507	1
0	10873	908.693476786922	0
0	10894	910.18305255394	1
0	10895	910.217668299895	0
0	10898	910.280678624343	1
0	10899	910.361307533541	0
0	10904	910.576510858284	1
0	10905	910.596697977505	0
0	10910	910.695513949428	1
0	10911	910.824347845242	0
0	10924	912.321987877579	1
0	10926	912.555381122547	2
0	10928	912.602801083857	3
0	10929	912.714335357673	2
0	10934	912.956164745967	3
0	10935	912.980200863427	2
0	10937	913.003815003958	1
0	10941	913.061577693028	0
0	10996	917.942471896603	1
0	10997	917.952322310101	0
0	11056	924.090711788832	1
0	11057	924.100583256291	0
0	11068	924.800528964918	1
0	11070	925.032648177026	2
0	11071	925.052458189523	1
0	11073	925.179504538573	0
0	11078	925.434374162961	1
0	11080	925.445569020556	2
0	11083	925.583247645655	1
0	11085	925.590480799402	0
0	11092	925.661260035702	1
0	11093	925.764430392317	0
0	11122	929.484038159881	1
0	11123	929.508991285447	0
0	11128	929.642321553172	1
0	11129	930.306546555752	0
0	11140	930.818997938998	1
0	11141	930.867738684383	0
0	11164	933.31052827525	1
0	11166	933.50158791155	2
0	11167	933.72911245949	1
0	11170	933.76454201166	2
0	11173	933.783040665756	1
0	11175	933.799349515813	0
0	11278	943.120670222117	1
0	11279	943.250507767387	0
0	11302	944.461953774438	1
0	11303	944.595957689549	0
0	11314	945.806335066724	1
0	11315	945.837063100241	0
0	11374	952.232886486223	1
0	11375	952.273184701159	0
0	11378	952.417941365588	1
0	11379	952.657401416626	0
0	11398	955.435012568466	1
0	11399	955.565228594545	0
0	11402	955.617634982881	1
0	11405	955.758516608179	0
0	11432	957.70537073972	1
0	11433	957.764236676467	0
0	11436	957.787341976224	1
0	11437	957.937751044377	0
0	11470	960.720336504974	1
0	11472	960.74505219894	2
0	11474	960.803749255348	3
0	11475	960.98095960191	2
0	11477	961.069730295708	1
0	11479	961.205135384008	0
0	11500	962.596757958492	1
0	11501	962.698120147053	0
0	11540	965.938560218145	1
0	11541	965.967709591143	0
0	11560	966.952257431725	1
0	11562	966.981327496309	2
0	11564	967.06801383028	3
0	11565	967.153787127108	2
0	11567	967.329528391287	1
0	11573	967.813051464665	0
0	11606	970.252765176482	1
0	11607	970.254454885077	0
0	11624	972.317809697441	1
0	11625	972.321831043438	0
0	11650	974.115713538672	1
0	11651	974.188199886828	0
0	11680	975.994864384989	1
0	11682	975.995419395039	2
0	11683	976.08647629523	1
0	11686	976.374125560326	2
0	11689	976.919476217484	1
0	11692	976.951610598688	2
0	11695	977.141857041401	1
0	11697	977.151691016782	0
0	11716	978.27767476055	1
0	11718	978.324862899953	2
0	11719	978.437548191391	1
0	11721	978.465721802109	0
0	11746	982.306479462134	1
0	11747	982.323922635952	0
0	11794	985.83159237424	1
0	11795	985.892403568501	0
0	11804	986.499699470347	1
0	11806	986.539526014178	2
0	11810	986.652980136408	3
0	11811	986.708069782627	2
0	11816	987.018366814771	3
0	11817	987.054289285661	2
0	11820	987.154708848381	3
0	11821	987.171866792025	2
0	11823	987.258974761134	1
0	11825	987.263118866292	0
0	11838	987.883301906666	1
0	11840	987.921029009528	2
0	11841	987.957768627244	1
0	11848	988.025144336244	2
0	11852	988.223795181166	3
0	11853	988.23075001792	2
0	11855	988.384028042124	1
0	11857	988.579599633637	0
0	11890	990.222000149475	1
0	11892	990.29958816234	2
0	11893	990.322323536811	1
0	11895	990.38704243818	0
0	11906	990.646252499775	1
0	11909	990.815539291014	0
0	11944	993.90050901012	1
0	11945	993.948098686941	0
0	11992	998.051704829976	1
0	11993	998.05941578435	0
0	12000	998.35938511815	1
0	12002	998.383216611475	2
0	12003	998.44004065035	1
0	12007	998.573776992977	0
0	12062	1001.607305143759	1
0	12065	1001.756840510225	0
0	12130	1007.60310699817	1
0	12132	1007.847557400681	2
0	12133	1007.895085986288	1
0	12135	1008.053094892475	0
0	12160	1010.315219755262	1
0	12161	1010.377580792083	0
0	12190	1013.158424021692	1
0	12191	1013.252721546532	0
0	12196	1013.424810481502	1
0	12197	1013.492706943003	0
0	12200	1013.547040966148	1
0	12203	1013.832466552767	0
0	12214	1014.369472205965	1
0	12215	1014.549733564899	0
0	12238	1018.389215900144	1
0	12239	1018.550633839116	0
0	12268	1021.027102717117	1
0	12269	1021.166823777934	0
0	12274	1021.242623754039	1
0	12275	1021.313107299125	0
0	12298	1023.251033631245	1
0	12299	1023.265715981166	0
0	12314	1024.110006664245	1
0	12316	1024.291939376832	2
0	12318	1024.385432321262	3
0	12319	1024.541668797401	2
0	12323	1024.599095917433	1
0	12326	1024.663914988486	2
0	12328	1024.85493730749	3
0	12332	1025.004820731538	4
0	12333	1025.065032497534	3
0	12335	1025.112573185962	2
0	12339	1025.257409070833	1
0	12347	1025.573292871979	0
0	12350	1025.625871898855	1
0	12351	1025.629942631202	0
0	12368	1026.890081552017	1
0	12371	1027.022393398771	0
0	12374	1027.169494003899	1
0	12378	1027.370210315427	2
0	12379	1027.463155007027	1
0	12383	1027.67196628832	0
0	12388	1027.84942513738	1
0	12390	1027.94697113284	2
0	12391	1028.136226576552	1
0	12393	1028.272868517175	0
0	12406	1028.827005387914	1
0	12407	1028.894100380826	0
0	12424	1030.898918548911	1
0	12425	1030.965748190066	0
0	12436	1031.920517223897	1
0	12438	1031.951048131831	2
0	12439	1032.120803085156	1
0	12441	1032.239871204348	0
0	12458	1033.756101044464	1
0	12459	1033.861831364665	0
0	12462	1033.87406562611	1
0	12463	1033.929509435228	0
0	12496	1037.473779705511	1
0	12498	1037.497060119155	2
0	12499	1037.56701313611	1
0	12501	1037.731007821246	0
0	12514	1039.002343870968	1
0	12515	1039.388812226483	0
0	12532	1039.723205678494	1
0	12533	1039.868285770623	0
0	12536	1039.911757448744	1
0	12537	1039.938188345183	0
0	12540	1040.256356213085	1
0	12541	1040.359442141906	0
0	12548	1040.451999850418	1
0	12552	1040.506785570585	2
0	12553	1040.551512258822	1
0	12555	1040.672930180394	0
0	12578	1043.071147950401	1
0	12579	1043.318254391179	0
0	12582	1043.325249548664	1
0	12583	1043.391438967148	0
0	12652	1048.117856772477	1
0	12653	1048.25464356073	0
0	12706	1051.099760726143	1
0	12707	1051.285130830529	0
0	12754	1056.191725601579	1
0	12756	1056.272284540328	2
0	12757	1056.280940385907	1
0	12761	1056.472288670574	0
0	12780	1059.656268549104	1
0	12781	1059.695705255725	0
0	12810	1060.824372655688	1
0	12811	1060.830639413023	0
0	12850	1064.043448276918	1
0	12851	1064.120462009044	0
0	12886	1067.041641023525	1
0	12887	1067.102478013881	0
0	12898	1068.837733474833	1
0	12899	1069.181859444297	0
0	12902	1069.19093502108	1
0	12905	1069.34780888114	0
0	12914	1069.661615365821	1
0	12917	1069.886977355763	0
0	12952	1073.705165747493	1
0	12953	1073.907564542197	0
0	13006	1079.871920757537	1
0	13008	1079.904484142258	2
0	13009	1080.011817543768	1
0	13012	1080.019535907832	2
0	13016	1080.195765494538	3
0	13017	1080.26797603808	2
0	13019	1080.316951721316	1
0	13021	1080.326487100485	0
0	13036	1081.018178626838	1
0	13037	1081.103671338478	0
0	13088	1086.061148221213	1
0	13091	1086.316894905343	0
0	13094	1086.341712341768	1
0	13095	1086.422478251988	0
0	13112	1087.052343414563	1
0	13114	1087.261840632288	2
0	13115	1087.454884103886	1
0	13117	1087.605454903752	0
0	13126	1087.841154101584	1
0	13127	1087.93209239794	0
0	13138	1089.129603102929	1
0	13139	1089.285111027276	0
0	13198	1094.562004541258	1
0	13199	1094.757195790071	0
0	13204	1095.035225720502	1
0	13206	1095.110571004092	2
0	13207	1095.230898119564	1
0	13210	1095.237837238522	2
0	13211	1095.293090776384	1
0	13214	1095.32583224863	2
0	13218	1095.423628345904	3
0	13221	1095.674643095228	2
0	13224	1095.706615989943	3
0	13225	1095.956273427991	2
0	13229	1096.19849793243	1
0	13233	1096.352306363933	0
0	13264	1101.812416527218	1
0	13266	1101.89819383087	2
0	13267	1102.115847576662	1
0	13270	1102.12281001217	2
0	13271	1102.304181094162	1
0	13275	1102.398996749358	0
0	13286	1103.09123354068	1
0	13289	1103.141691774462	0
0	13300	1104.035430561067	1
0	13301	1104.175173882385	0
0	13312	1104.543172274797	1
0	13313	1104.56093178806	0
0	13318	1104.689415805094	1
0	13320	1104.929393801987	2
0	13321	1105.159995808477	1
0	13324	1105.310568125845	2
0	13325	1105.348861917942	1
0	13327	1105.448835871939	0
0	13378	1108.278283734488	1
0	13379	1108.506604041891	0
0	13402	1110.62494126428	1
0	13403	1110.691883712582	0
0	13420	1113.930367314884	1
0	13422	1114.043591983463	2
0	13423	1114.115688164994	1
0	13426	1114.267094112911	2
0	13428	1114.461134643564	3
0	13430	1114.56305636393	4
0	13431	1114.6518954849	3
0	13433	1114.790496457696	2
0	13436	1114.812030313931	3
0	13437	1114.824100000086	2
0	13443	1114.883043994142	1
0	13446	1114.964307281841	2
0	13447	1115.040241121561	1
0	13452	1115.190349811166	2
0	13453	1115.217653789602	1
0	13457	1115.287954833977	0
0	13492	1116.559165323562	1
0	13494	1116.602361014545	2
0	13495	1116.649343848178	1
0	13498	1116.716165479474	2
0	13499	1116.944244996146	1
0	13501	1116.952816794273	0
0	13552	1119.997175399223	1
0	13553	1120.082852113182	0
0	13580	1122.169567130974	1
0	13583	1122.250866107663	0
0	13640	1125.953473733031	1
0	13642	1125.979302125462	2
0	13646	1126.684718559635	3
0	13647	1126.832398586833	2
0	13649	1126.863020276329	1
0	13651	1126.877601958528	0
0	13664	1127.69021045537	1
0	13665	1127.711833611041	0
0	13750	1134.180344528536	1
0	13751	1134.272082706232	0
0	13780	1135.533498870998	1
0	13781	1135.66695906622	0
0	13792	1136.713673715286	1
0	13793	1136.793616093692	0
0	13804	1137.413517184949	1
0	13805	1137.465701056988	0
0	13864	1141.831216165903	1
0	13865	1142.010018902729	0
0	13882	1144.233068061248	1
0	13883	1144.244886335333	0
0	13930	1150.490489082603	1
0	13931	1150.540394485851	0
0	13954	1151.817053688989	1
0	13956	1151.819497078114	2
0	13957	1151.89830473373	1
0	13959	1152.069964566307	0
0	13984	1155.373234628361	1
0	13985	1155.572297547074	0
0	14026	1159.89634211027	1
0	14028	1160.004697887711	2
0	14029	1160.145271086613	1
0	14032	1160.362781486573	2
0	14035	1160.481640275384	1
0	14039	1160.920842216399	0
0	14080	1163.974471069575	1
0	14081	1163.999792456634	0
0	14086	1164.539913679134	1
0	14087	1164.813752712069	0
0	14098	1166.577906044286	1
0	14099	1166.601561325071	0
0	14200	1177.618718063255	1
0	14202	1177.649783495629	2
0	14203	1177.655289426053	1
0	14205	1177.762173235303	0
0	14214	1178.114290076508	1
0	14215	1178.153065599978	0
0	14264	1184.401099706666	1
0	14266	1184.435412066663	2
0	14269	1184.620336675772	1
0	14273	1184.853579651259	0
0	14314	1187.664182423465	1
0	14315	1187.670586569848	0
0	14318	1187.685347838355	1
0	14321	1187.906258126276	0
0	14324	1187.929226655231	1
0	14325	1188.009904665048	0
0	14378	1192.108994091279	1
0	14379	1192.118061282819	0
0	14410	1195.586785522452	1
0	14411	1195.653925818157	0
0	14422	1196.080069749421	1
0	14423	1196.080955200305	0
0	14446	1197.45951830247	1
0	14447	1197.606127635667	0
0	14474	1199.190450913498	1
0	14475	1199.261433942841	0
0	14530	1206.849302119833	1
0	14531	1207.008180150626	0
0	14548	1207.84852855766	1
0	14550	1207.862790075955	2
0	14551	1207.875925203144	1
0	14553	1207.883793488704	0
0	14570	1209.009819218635	1
0	14571	1209.095413791635	0
0	14596	1209.75783781952	1
0	14598	1209.924166231653	2
0	14599	1209.994583855138	1
0	14602	1210.06918050413	2
0	14603	1210.168990637911	1
0	14605	1210.347886448729	0
0	14632	1212.102441666143	1
0	14634	1212.123030187797	2
0	14635	1212.142701526868	1
0	14640	1212.408315140467	2
0	14641	1212.446550696084	1
0	14643	1212.463196753545	0
0	14716	1221.832759473479	1
0	14718	1221.933606766991	2
0	14719	1221.950376126769	1
0	14722	1221.983729500788	2
0	14723	1222.031320349897	1
0	14729	1222.188044283179	0
0	14744	1222.883869062548	1
0	14746	1222.927560195497	2
0	14747	1222.962266288388	1
0	14749	1223.049743858752	0
0	14776	1224.886555881458	1
0	14777	1224.999473780434	0
0	14818	1231.362780444154	1
0	14819	1231.382557661006	0
0	14824	1231.668703597658	1
0	14825	1231.683332198638	0
0	14836	1233.122349421617	1
0	14838	1233.167064725359	2
0	14839	1233.190844081422	1
0	14841	1233.274114341336	0
0	14866	1236.621339255035	1
0	14867	1236.744185638579	0
0	14878	1237.025421096685	1
0	14879	1237.187298401168	0
0	14908	1238.809490811262	1
0	14909	1238.927031225158	0
0	14938	1241.059907302989	1
0	14939	1241.136000108501	0
0	14984	1243.266377017942	1
0	14987	1243.371108992492	0
0	15028	1249.375785517657	1
0	15029	1249.448903534326	0
0	15052	1251.497699704099	1
0	15054	1251.761496846982	2
0	15055	1251.880399013439	1
0	15060	1252.012797386295	2
0	15061	1252.113581613564	1
0	15066	1252.313251768001	2
0	15067	1252.429726476953	1
0	15070	1252.603015887524	2
0	15071	1252.675385137885	1
0	15073	1252.678423368832	0
0	15094	1253.400521563773	1
0	15096	1253.702185590041	2
0	15098	1253.749789687056	3
0	15100	1253.9231333789	4
0	15101	1253.923668812266	3
0	15103	1254.164011582122	2
0	15106	1254.320932572175	3
0	15111	1254.517940910739	2
0	15113	1254.528053825429	1
0	15119	1254.612013798378	0
0	15122	1254.633004383587	1
0	15124	1254.790128774244	2
0	15125	1254.814571334745	1
0	15131	1254.988592760718	0
0	15148	1255.697172450134	1
0	15149	1255.926655226167	0
0	15166	1258.238490755817	1
0	15167	1258.381056865188	0
0	15206	1261.136380600542	1
0	15207	1261.469238794806	0
0	15220	1264.137488546819	1
0	15221	1264.143637996921	0
0	15250	1269.605118323285	1
0	15251	1269.818129647435	0
0	15286	1274.664350243804	1
0	15287	1274.894766432838	0
0	15316	1276.875908289602	1
0	15317	1276.927181815102	0
0	15320	1276.937261587002	1
0	15321	1277.056244300253	0
0	15352	1280.209087766702	1
0	15353	1280.346695678094	0
0	15376	1283.112603215412	1
0	15377	1283.142848163295	0
0	15394	1284.235807982708	1
0	15396	1284.487296260216	2
0	15397	1284.593340706727	1
0	15399	1284.649733916942	0
0	15410	1285.49879442753	1
0	15411	1285.533969719028	0
0	15414	1285.562448180042	1
0	15415	1285.768322734448	0
0	15422	1285.947950768596	1
0	15423	1286.173897957734	0
0	15482	1292.843583758841	1
0	15483	1292.988388749845	0
0	15494	1293.687401508715	1
0	15498	1293.970893402978	2
0	15500	1293.97831849746	3
0	15502	1294.08607373424	4
0	15504	1294.186629731813	5
0	15505	1294.218946267386	4
0	15510	1294.532972992723	5
0	15511	1294.566315231167	4
0	15513	1294.656834824259	3
0	15515	1294.658639679312	2
0	15518	1294.707019327794	3
0	15525	1294.970539127859	2
0	15527	1294.994839342459	1
0	15530	1295.047817229226	2
0	15531	1295.08111202199	1
0	15533	1295.148323806107	0
0	15580	1298.507587243698	1
0	15581	1298.646612274966	0
0	15596	1301.003063292732	1
0	15599	1301.163990596103	0
0	15640	1303.987503907242	1
0	15642	1303.993020254816	2
0	15643	1304.171102070313	1
0	15645	1304.331601126414	0
0	15652	1304.572070505551	1
0	15653	1304.583679885233	0
0	15676	1306.018782983075	1
0	15677	1306.113870799654	0
0	15688	1307.946545898289	1
0	15689	1308.099443849038	0
0	15694	1308.258401712199	1
0	15695	1308.298279788184	0
0	15718	1310.034697077854	1
0	15719	1310.071094544813	0
0	15758	1312.781305062474	1
0	15759	1312.912834070897	0
0	15784	1313.996860983157	1
0	15785	1314.080212484282	0
0	15796	1315.366304829552	1
0	15797	1315.438800431815	0
0	15802	1315.457487068503	1
0	15803	1315.539107321537	0
0	15806	1315.612362312155	1
0	15809	1315.717761882189	0
0	15816	1316.520446167152	1
0	15819	1316.555452283656	0
0	15850	1319.065993341008	1
0	15851	1319.459865228835	0
0	15862	1320.978600428712	1
0	15863	1321.017617143211	0
0	15866	1321.051790953447	1
0	15867	1321.091822776542	0
0	15886	1323.050149730798	1
0	15887	1323.065867087022	0
0	15890	1323.164422645534	1
0	15894	1323.230047280597	2
0	15895	1323.246588865349	1
0	15899	1323.327094198627	0
0	15910	1323.914598940653	1
0	15911	1324.119934263169	0
0	15918	1324.213822801133	1
0	15919	1324.242375940182	0
0	15952	1326.974933777332	1
0	15953	1327.19887235312	0
0	15964	1328.170853091396	1
0	15965	1328.179517324019	0
0	15982	1329.864848255505	1
0	15984	1330.006856469114	2
0	15986	1330.091553661945	3
0	15987	1330.203924204071	2
0	15989	1330.4546601318	1
0	15991	1330.480900387202	0
0	16048	1336.043936566201	1
0	16049	1336.095941593168	0
0	16108	1340.518048374057	1
0	16109	1340.555261457702	0
0	16160	1345.427280408905	1
0	16161	1345.497616354953	0
0	16174	1348.538711233533	1
0	16175	1348.691316894011	0
0	16210	1352.064925542372	1
0	16212	1352.117375767088	2
0	16213	1352.122805009115	1
0	16216	1352.180859093963	2
0	16217	1352.221078185807	1
0	16219	1352.300287090062	0
0	16242	1354.029187348754	1
0	16243	1354.092676433808	0
0	16336	1362.084578925633	1
0	16338	1362.141625580954	2
0	16340	1362.323789360372	3
0	16341	1362.41749557452	2
0	16346	1362.43472357011	3
0	16347	1362.689979379346	2
0	16351	1363.071540199732	1
0	16354	1363.078518263177	2
0	16357	1363.141684458039	1
0	16360	1363.14307390836	2
0	16363	1363.276308563482	1
0	16366	1363.328210046214	2
0	16367	1363.330134062329	1
0	16369	1363.419567845703	0
0	16372	1363.431404187479	1
0	16374	1363.452917386192	2
0	16375	1363.456603756014	1
0	16377	1363.679248421835	0
0	16438	1370.869776282627	1
0	16439	1370.871938149098	0
0	16444	1371.091063214412	1
0	16445	1371.10841310593	0
0	16456	1371.570064026996	1
0	16457	1372.002897262846	0
0	16492	1374.629906141957	1
0	16493	1374.737602573634	0
0	16516	1376.608283232631	1
0	16517	1376.877508826771	0
0	16576	1381.627508080107	1
0	16577	1381.919502577913	0
0	16612	1386.516159357988	1
0	16613	1386.609301681302	0
0	16630	1388.232026394834	1
0	16631	1388.549490847842	0
0	16640	1389.318640394637	1
0	16642	1389.356258969811	2
0	16645	1389.554222714168	1
0	16647	1389.560663275267	0
0	16666	1391.525550533268	1
0	16667	1391.67885403155	0
0	16678	1392.070350056022	1
0	16680	1392.117621679447	2
0	16682	1392.153753026139	3
0	16684	1392.164931347316	4
0	16685	1392.411364538237	3
0	16687	1392.432421149792	2
0	16689	1392.441475345894	1
0	16696	1392.520769946906	2
0	16697	1392.524179679283	1
0	16699	1392.671460907183	0
0	16702	1392.71315370706	1
0	16703	1392.790439665154	0
0	16712	1392.943442226589	1
0	16713	1392.965665980578	0
0	16778	1398.743621218176	1
0	16779	1398.750540903234	0
0	16882	1408.774973952355	1
0	16883	1408.876657078986	0
0	16894	1409.379362672385	1
0	16895	1409.536034239536	0
0	16940	1413.081581601069	1
0	16941	1413.107889589671	0
0	16954	1413.575107728783	1
0	16955	1413.86347816995	0
0	16966	1415.090596333621	1
0	16967	1415.483478940131	0
0	17128	1428.324309823686	1
0	17129	1428.469527597857	0
0	17140	1430.275655426888	1
0	17142	1430.31443358626	2
0	17144	1430.72742148036	3
0	17145	1430.999527967935	2
0	17148	1431.2128063512	3
0	17151	1431.311992221903	2
0	17153	1431.368270069643	1
0	17158	1431.584970194047	2
0	17159	1431.611073464561	1
0	17162	1431.698700603572	2
0	17163	1431.71728839927	1
0	17166	1431.718278418059	2
0	17171	1432.024940990791	1
0	17173	1432.113644083766	0
0	17194	1432.978567741827	1
0	17195	1433.053065831022	0
0	17198	1433.091622307733	1
0	17200	1433.146076018794	2
0	17203	1433.227929568366	1
0	17205	1433.43787403984	0
0	17208	1433.445491154277	1
0	17210	1433.67030750224	2
0	17211	1433.712671335087	1
0	17213	1433.725080359752	0
0	17254	1436.248407031838	1
0	17255	1436.288251581488	0
0	17314	1441.710521096643	1
0	17315	1441.964369665651	0
0	17326	1442.469225611703	1
0	17327	1442.533090287499	0
0	17380	1446.346426717868	1
0	17381	1446.377274030599	0
0	17392	1448.048680945881	1
0	17393	1448.159679233765	0
0	17416	1451.040615350699	1
0	17417	1451.209490770339	0
0	17420	1451.241330416612	1
0	17424	1451.388567324263	2
0	17425	1451.448420050279	1
0	17427	1451.646918217608	0
0	17450	1453.285652990674	1
0	17451	1453.375014363799	0
0	17512	1458.601376482048	1
0	17513	1458.673561818629	0
0	17530	1459.712479965214	1
0	17531	1459.767620181968	0
0	17560	1464.165820638783	1
0	17561	1464.238794387432	0
0	17590	1469.612910102087	1
0	17592	1469.630832580362	2
0	17593	1469.707692019514	1
0	17595	1469.7322975434	0
0	17614	1471.271071885848	1
0	17615	1471.27314247514	0
0	17668	1475.72792597121	1
0	17669	1475.779738618164	0
0	17692	1477.668617670237	1
0	17693	1478.078683376782	0
0	17696	1478.164270534466	1
0	17697	1478.207652660651	0
0	17740	1482.447387841805	1
0	17741	1482.56289046598	0
0	17752	1483.015293864438	1
0	17753	1483.12441246514	0
0	17776	1486.89907116006	1
0	17777	1487.170327035121	0
0	17786	1487.867159520453	1
0	17788	1487.940117860352	2
0	17789	1487.9578183964	1
0	17791	1487.959446064848	0
0	17822	1490.229775003366	1
0	17824	1490.250112308387	2
0	17825	1490.273196778	1
0	17830	1490.449580689824	2
0	17831	1490.464200946791	1
0	17837	1490.849386300609	0
0	17840	1490.85897516642	1
0	17841	1490.909114890905	0
0	17926	1497.372143508628	1
0	17928	1497.393857635535	2
0	17929	1497.458723006169	1
0	17931	1497.55377835676	0
0	17950	1499.037013305937	1
0	17951	1499.205933186578	0
0	17956	1499.407932245821	1
0	17957	1499.466472105465	0
0	17978	1500.162316281592	1
0	17979	1500.202411793383	0
0	18028	1504.774883161516	1
0	18029	1504.819275946263	0
0	18040	1506.076508170352	1
0	18041	1506.099018477647	0
0	18142	1517.502487826653	1
0	18143	1517.558644543948	0
0	18146	1517.643821385553	1
0	18149	1518.178436421041	0
0	18164	1520.040883789037	1
0	18166	1520.205431709927	2
0	18167	1520.238237908807	1
0	18169	1520.345529434203	0
0	18206	1524.234191657898	1
0	18207	1524.269747387403	0
0	18224	1524.984536777547	1
0	18225	1525.036161029008	0
0	18256	1529.176925897554	1
0	18258	1529.362515012003	2
0	18259	1529.377299023037	1
0	18263	1529.516184121839	0
0	18310	1533.240596144908	1
0	18311	1533.584023548445	0
0	18334	1534.681782314307	1
0	18336	1534.696168404907	2
0	18337	1534.814622662051	1
0	18341	1534.977923869152	0
0	18346	1535.024787726954	1
0	18348	1535.045885704024	2
0	18349	1535.090627118106	1
0	18352	1535.13802868159	2
0	18354	1535.263121974387	3
0	18357	1535.332671594375	2
0	18361	1535.429094932436	1
0	18363	1535.441541148828	0
0	18370	1535.742614621892	1
0	18371	1535.828961586295	0
0	18400	1538.059716646264	1
0	18401	1538.224088903221	0
0	18418	1539.313785286202	1
0	18419	1539.389100135046	0
0	18442	1541.927106873987	1
0	18443	1541.959916881917	0
0	18452	1542.37770801012	1
0	18453	1542.58381505312	0
0	18472	1544.265266061909	1
0	18474	1544.371134358805	2
0	18475	1544.511373729598	1
0	18479	1544.551561413033	0
0	18496	1545.394275844723	1
0	18497	1545.562822069906	0
0	18502	1546.171261471964	1
0	18503	1546.580589372815	0
0	18532	1549.232721964448	1
0	18533	1549.288313445174	0
0	18604	1557.452822252759	1
0	18605	1557.664883733729	0
0	18650	1563.74980876876	1
0	18651	1563.813232742249	0
0	18664	1564.720404706899	1
0	18665	1564.839082174611	0
0	18700	1568.002489616583	1
0	18701	1568.030608296888	0
0	18730	1570.554300978919	1
0	18731	1570.561292755992	0
0	18738	1570.682995273428	1
0	18740	1570.772438202935	2
0	18743	1570.906226815933	1
0	18747	1571.015914197892	0
0	18750	1571.076300443519	1
0	18752	1571.084531123937	2
0	18755	1571.317875978387	1
0	18757	1571.49184471653	0
0	18770	1571.811896873016	1
0	18771	1571.847603284968	0
0	18786	1572.685473430908	1
0	18791	1572.895874379181	0
0	18818	1577.470774525453	1
0	18819	1577.47648638758	0
0	18838	1578.168702125732	1
0	18839	1578.220260492677	0
0	18844	1578.276044732088	1
0	18845	1578.285647213527	0
0	18874	1582.843148408298	1
0	18875	1582.919380693083	0
0	18922	1588.253419799402	1
0	18924	1588.293045183676	2
0	18926	1588.607387111682	3
0	18927	1588.709588294184	2
0	18929	1588.732865533285	1
0	18933	1588.849267570063	0
0	19048	1599.262699409717	1
0	19049	1599.499677896009	0
0	19052	1599.591409553666	1
0	19055	1599.824975545065	0
0	19060	1600.067678411932	1
0	19061	1600.156318541278	0
0	19100	1605.726167343905	1
0	19102	1605.730486759204	2
0	19103	1605.76687538887	1
0	19108	1606.071751880419	2
0	19110	1606.17353199422	3
0	19113	1606.611872929722	2
0	19115	1606.660624795065	1
0	19117	1606.696181052781	0
0	19132	1607.971356686331	1
0	19133	1608.034203163387	0
0	19150	1609.787913801048	1
0	19152	1609.808338693417	2
0	19153	1610.237979618943	1
0	19155	1610.347469250541	0
0	19174	1611.231803442516	1
0	19175	1611.285841104693	0
0	19178	1611.34345355433	1
0	19179	1611.368353185844	0
0	19182	1611.402904189578	1
0	19183	1611.444289120824	0
0	19190	1611.646950423372	1
0	19193	1611.792736847299	0
0	19222	1614.359623228795	1
0	19223	1614.365491699605	0
0	19264	1618.990312025206	1
0	19265	1619.031496360409	0
0	19276	1619.826710812269	1
0	19277	1619.899711104022	0
0	19286	1620.053973616907	1
0	19287	1620.075733905283	0
0	19354	1627.97224637052	1
0	19355	1628.096906151302	0
0	19358	1628.38630224247	1
0	19359	1628.54343005319	0
0	19378	1629.851520477877	1
0	19379	1630.102321233956	0
0	19408	1634.931573214619	1
0	19409	1634.987698917633	0
0	19420	1635.776649610702	1
0	19421	1635.78869285534	0
0	19498	1644.622982726215	1
0	19499	1644.778245527326	0
0	19534	1647.947932775001	1
0	19535	1648.420672463966	0
0	19558	1649.606836918377	1
0	19559	1649.689422702672	0
0	19588	1652.553490547976	1
0	19589	1652.612099129516	0
0	19622	1653.911580239429	1
0	19625	1654.034873155586	0
0	19688	1661.52905832951	1
0	19691	1661.707538524107	0
0	19714	1664.08719407172	1
0	19715	1664.105876934418	0
0	19722	1664.316832893429	1
0	19723	1664.400641063568	0
0	19744	1664.971321591101	1
0	19745	1664.97205093845	0
0	19786	1666.981246446087	1
0	19787	1667.171694963351	0
0	19792	1667.505626552179	1
0	19794	1667.625045503514	2
0	19795	1667.735372915334	1
0	19797	1667.770405294716	0
0	19882	1677.878373527372	1
0	19883	1677.970378311677	0
0	19900	1679.650813465372	1
0	19902	1680.008656889711	2
0	19903	1680.071116099662	1
0	19906	1680.072047663554	2
0	19909	1680.321804348663	1
0	19911	1680.414820538015	0
0	19936	1682.32800625736	1
0	19937	1682.430728365104	0
0	19964	1686.121911698617	1
0	19965	1686.172089852372	0
0	19982	1687.159386292406	1
0	19984	1687.162799617835	2
0	19986	1687.186905441473	3
0	19987	1687.20692192551	2
0	19993	1687.428639656316	1
0	19995	1687.443602549216	0
0	20056	1694.029585562847	1
0	20057	1694.043198598105	0
0	20074	1695.555234016946	1
0	20076	1695.807804210002	2
0	20077	1695.86675661429	1
0	20081	1695.963908776968	0
0	20134	1700.878266853414	1
0	20136	1700.991442613757	2
0	20138	1701.022324758034	3
0	20139	1701.02352097607	2
0	20141	1701.076124219024	1
0	20143	1701.219425072908	0
0	20146	1701.296732232136	1
0	20149	1701.481089124575	0
0	20176	1703.232333220348	1
0	20177	1703.418335768537	0
0	20182	1703.748926762829	1
0	20183	1703.779590685911	0
0	20224	1706.222725075325	1
0	20225	1706.287832719401	0
0	20230	1706.715177033063	1
0	20232	1706.84797380315	2
0	20233	1707.047344339899	1
0	20237	1707.154805082131	0
0	20240	1707.183651431139	1
0	20241	1707.203176228536	0
0	20384	1717.986337099384	1
0	20386	1718.06630277519	2
0	20389	1718.269707180734	1
0	20391	1718.286247409354	0
0	20420	1720.884910673653	1
0	20422	1720.893484414491	2
0	20425	1721.399627983164	1
0	20427	1721.657352343511	0
0	20440	1722.415643575166	1
0	20441	1722.638471946255	0
0	20490	1724.642603313039	1
0	20494	1724.814260205518	2
0	20495	1724.851649763269	1
0	20499	1724.874280291648	0
0	20502	1724.956294785596	1
0	20503	1724.971899750325	0
0	20528	1727.543735714456	1
0	20529	1727.6314422401	0
0	20584	1733.897807229886	1
0	20585	1733.945717125783	0
0	20596	1734.469863211775	1
0	20597	1734.47099847119	0
0	20658	1739.568662605884	1
0	20659	1739.65326026463	0
0	20672	1740.230691978321	1
0	20675	1740.384562537628	0
0	20728	1747.500827084263	1
0	20729	1747.583108291298	0
0	20770	1749.573483194752	1
0	20771	1749.694127556011	0
0	20780	1749.708850483496	1
0	20782	1749.741026473482	2
0	20783	1749.83370665667	1
0	20785	1749.868210091805	0
0	20812	1752.456422116921	1
0	20814	1752.584868123861	2
0	20815	1753.148483907997	1
0	20818	1753.271546556947	2
0	20821	1753.464562366749	1
0	20823	1753.568940790789	0
0	20836	1754.20825721103	1
0	20838	1754.457155658203	2
0	20839	1754.471272664835	1
0	20842	1754.626605115135	2
0	20843	1754.763386510577	1
0	20845	1754.795089106607	0
0	20890	1757.951759923942	1
0	20891	1758.035697906329	0
0	20906	1759.637621225413	1
0	20909	1759.744309005846	0
0	20932	1761.919224471284	1
0	20933	1761.942433235436	0
0	20936	1762.063063458294	1
0	20939	1762.380395762758	0
0	20944	1762.593768171353	1
0	20945	1762.614134885283	0
0	20960	1763.300055779613	1
0	20961	1763.347120909119	0
0	21008	1767.91861759525	1
0	21009	1767.953350056861	0
0	21040	1769.809115123014	1
0	21041	1769.948551292248	0
0	21064	1770.870571357835	1
0	21065	1770.906352542144	0
0	21086	1771.858100141975	1
0	21089	1772.089949040011	0
0	21130	1776.249801155784	1
0	21132	1776.428808911003	2
0	21133	1776.608557116717	1
0	21136	1776.638890136226	2
0	21138	1776.646421700092	3
0	21139	1776.798215639887	2
0	21145	1777.684122043958	1
0	21147	1777.870042407579	0
0	21196	1782.077210406864	1
0	21197	1782.178947021388	0
0	21224	1783.406235173122	1
0	21225	1783.441932464679	0
0	21228	1783.49542798932	1
0	21232	1783.565039166877	2
0	21235	1783.970202062032	1
0	21237	1784.011447089094	0
0	21274	1788.327132579784	1
0	21275	1788.362249479046	0
0	21292	1792.179614607826	1
0	21294	1792.199233096284	2
0	21296	1792.206573199262	3
0	21297	1792.284285263775	2
0	21299	1792.410169101315	1
0	21301	1792.436351308553	0
0	21352	1796.732058193932	1
0	21354	1796.839846806739	2
0	21355	1797.153096599518	1
0	21359	1797.535419570541	0
0	21376	1800.41164782596	1
0	21377	1800.504239392226	0
0	21382	1800.76678898828	1
0	21384	1801.097194668673	2
0	21385	1801.198426382801	1
0	21389	1801.462745387643	0
0	21424	1806.107886189208	1
0	21426	1806.274113995343	2
0	21427	1806.459743226867	1
0	21429	1806.477862506202	0
0	21452	1807.616201777178	1
0	21455	1807.672801175752	0
0	21496	1812.027021021267	1
0	21497	1812.223140304326	0
0	21500	1812.352943309086	1
0	21501	1812.357014565778	0
0	21568	1816.610645993027	1
0	21574	1816.895636373441	2
0	21575	1817.201034083098	1
0	21577	1817.241557584078	0
0	21584	1817.430552604766	1
0	21585	1817.578162948189	0
0	21608	1820.931822530398	1
0	21611	1821.105443448684	0
0	21628	1822.079247739404	1
0	21630	1822.392441243371	2
0	21631	1822.548017250586	1
0	21633	1822.612612523394	0
0	21640	1822.776390569086	1
0	21641	1822.854207228704	0
0	21718	1829.137047015407	1
0	21719	1829.163749009515	0
0	21742	1830.528486783403	1
0	21743	1830.650982160939	0
0	21752	1831.095344151904	1
0	21753	1831.117736799893	0
0	21770	1831.909868716575	1
0	21772	1831.922555982723	2
0	21773	1832.027710407247	1
0	21777	1832.206227766918	0
0	21780	1832.217214421661	1
0	21783	1832.279728047665	0
0	21786	1832.295825661472	1
0	21789	1832.485325539519	0
0	21820	1836.349201552073	1
0	21822	1837.290884681923	2
0	21823	1837.956413947509	1
0	21825	1838.002735790857	0
0	21890	1841.680678804439	1
0	21891	1841.726063738388	0
0	21916	1843.700038244153	1
0	21917	1843.779327989651	0
0	21920	1843.804850525105	1
0	21921	1843.810302193492	0
0	21958	1847.384134803994	1
0	21959	1847.41915027635	0
0	22000	1850.02993251717	1
0	22001	1850.044492040139	0
0	22018	1851.553627894103	1
0	22019	1851.622330929028	0
0	22066	1854.095875197623	1
0	22068	1854.196366590939	2
0	22069	1854.267247674299	1
0	22074	1854.479777921159	2
0	22075	1854.561020565426	1
0	22079	1854.585215696574	0
0	22138	1861.457844690723	1
0	22140	1861.519955962468	2
0	22142	1861.547148219086	3
0	22143	1861.606019092287	2
0	22145	1861.754252254223	1
0	22149	1861.857033720841	0
0	22154	1861.962240673429	1
0	22157	1862.003409839182	0
0	22204	1864.786274920383	1
0	22205	1864.82860144751	0
0	22208	1864.898721065255	1
0	22211	1865.054555341036	0
0	22240	1867.446506808932	1
0	22241	1867.587278307603	0
0	22270	1870.620946253026	1
0	22271	1870.642991067598	0
0	22274	1870.654456570993	1
0	22275	1870.771112621722	0
0	22364	1878.284571772547	1
0	22366	1878.555146215101	2
0	22369	1878.722115581209	1
0	22371	1878.750437515246	0
0	22396	1880.349885188806	1
0	22397	1880.568015875335	0
0	22414	1881.695316252647	1
0	22416	1881.992978000942	2
0	22417	1882.040709445278	1
0	22419	1882.102479346329	0
0	22462	1888.232712727244	1
0	22463	1888.277745302616	0
0	22484	1891.404572960865	1
0	22488	1891.76457368186	2
0	22489	1891.817864396402	1
0	22491	1891.842506772245	0
0	22522	1893.589007521148	1
0	22523	1893.687404246197	0
0	22576	1896.710516986251	1
0	22577	1896.759254510624	0
0	22586	1897.028371735995	1
0	22589	1897.141027417374	0
0	22720	1915.064829187589	1
0	22721	1915.12170299365	0
0	22762	1918.646681698793	1
0	22764	1918.664364603782	2
0	22765	1918.673262892531	1
0	22767	1918.728773216913	0
0	22770	1918.733220440097	1
0	22775	1918.92969689687	0
0	22792	1920.63244224822	1
0	22793	1920.855784646279	0
0	22796	1920.897577192156	1
0	22799	1920.98195592292	0
0	22810	1921.397110928007	1
0	22811	1921.671691437125	0
0	22814	1921.729147324311	1
0	22817	1921.764744007604	0
0	22852	1926.428477824535	1
0	22853	1926.447756598063	0
0	22882	1929.459411374926	1
0	22883	1929.587688060974	0
0	22894	1930.269537015636	1
0	22896	1930.330363103046	2
0	22897	1930.484289351408	1
0	22899	1930.605916266394	0
0	22942	1936.991088882654	1
0	22943	1937.092504474012	0
0	22954	1938.17951075318	1
0	22955	1938.232415056945	0
0	22996	1944.049597283099	1
0	22997	1944.052915652515	0
0	23006	1944.333662233308	1
0	23009	1944.430129279209	0
0	23014	1944.513598758493	1
0	23015	1944.536249059827	0
0	23020	1944.923296587749	1
0	23021	1944.963869130115	0
0	23026	1945.202646230717	1
0	23027	1945.27137102937	0
0	23050	1948.04289568954	1
0	23051	1948.060513045144	0
0	23086	1950.620134911772	1
0	23087	1950.67801560046	0
0	23098	1951.229758397009	1
0	23099	1951.410954068657	0
0	23134	1953.851468384901	1
0	23135	1953.879176040769	0
0	23170	1957.702651598577	1
0	23171	1957.731557716446	0
0	23176	1958.062612968922	1
0	23178	1958.097124265668	2
0	23180	1958.215162411033	3
0	23181	1958.407416341849	2
0	23183	1958.4196726399	1
0	23185	1958.439617062592	0
0	23194	1958.72163553262	1
0	23196	1958.771717007142	2
0	23198	1958.876829248401	3
0	23199	1958.924328231049	2
0	23201	1958.976146679869	1
0	23205	1959.135661960549	0
0	23216	1959.667664594819	1
0	23217	1959.716534321803	0
0	23294	1967.187725474505	1
0	23297	1967.468097048583	0
0	23300	1967.57521070916	1
0	23303	1967.780585858365	0
0	23338	1971.369923337399	1
0	23339	1971.49171868495	0
0	23362	1974.698657754766	1
0	23364	1974.703396149485	2
0	23365	1974.703710153424	1
0	23370	1974.857510449816	2
0	23371	1974.983474044821	1
0	23373	1975.074497124076	0
0	23440	1980.654505427331	1
0	23442	1980.674597222335	2
0	23443	1980.798270321185	1
0	23445	1980.822311470082	0
0	23492	1984.902224685627	1
0	23493	1984.93427507477	0
0	23496	1985.093620715417	1
0	23501	1985.21213874963	0
0	23504	1985.239334569219	1
0	23505	1985.28089591863	0
0	23554	1990.898204668783	1
0	23555	1991.278649984886	0
0	23560	1991.402539216934	1
0	23562	1991.565124083642	2
0	23563	1991.580180236167	1
0	23567	1992.068386923447	0
0	23578	1992.881053084719	1
0	23580	1992.888303140971	2
0	23581	1992.933820183345	1
0	23583	1993.140326577672	0
0	23586	1993.151767033341	1
0	23587	1993.245480968989	0
0	23602	1993.603291507773	1
0	23603	1993.614108577888	0
0	23606	1993.623313152242	1
0	23612	1993.827967503425	2
0	23615	1994.186539927297	1
0	23618	1994.201146811065	2
0	23619	1994.242554403536	1
0	23623	1994.417941688703	0
0	23656	1997.828578715035	1
0	23657	1998.011406764312	0
0	23680	2001.007234282302	1
0	23681	2001.091016812539	0
0	23740	2006.39082076763	1
0	23741	2006.498884279525	0
0	23752	2008.015989240154	1
0	23753	2008.022586206359	0
0	23764	2008.722137654913	1
0	23766	2008.741952712435	2
0	23768	2008.962852763817	3
0	23770	2009.100968606727	4
0	23771	2009.185512571294	3
0	23775	2009.283967817064	2
0	23778	2009.36537529264	3
0	23781	2009.505206443456	2
0	23785	2009.819205513162	1
0	23787	2009.824802390305	0
0	23806	2011.097593219224	1
0	23807	2011.457762810303	0
0	23824	2012.328897242113	1
0	23826	2012.518656932086	2
0	23827	2012.961963572655	1
0	23831	2013.039698528086	0
0	23896	2019.034829402683	1
0	23898	2019.05505811722	2
0	23900	2019.075486370458	3
0	23901	2019.15139558953	2
0	23903	2019.165163777806	1
0	23905	2019.205216104238	0
0	23932	2020.672542032401	1
0	23934	2020.831080324777	2
0	23935	2021.319614423324	1
0	23937	2021.427620149147	0
0	23956	2024.274487563176	1
0	23958	2024.344282081186	2
0	23959	2024.489602220931	1
0	23961	2024.639324146596	0
0	23986	2028.108582923588	1
0	23987	2028.226437695915	0
0	24028	2036.414217015076	1
0	24029	2036.502910095853	0
0	24034	2036.536421695445	1
0	24035	2036.55912932374	0
0	24122	2043.760684342694	1
0	24125	2043.800755554151	0
0	24154	2048.01440676045	1
0	24155	2048.118516503075	0
0	24172	2050.947582961841	1
0	24173	2051.098674028607	0
0	24244	2060.646393210564	1
0	24245	2060.660651791248	0
0	24250	2060.782189999764	1
0	24251	2060.936291781111	0
0	24262	2061.213303854685	1
0	24263	2061.226159148414	0
0	24280	2062.479161940785	1
0	24281	2062.503212152322	0
0	24320	2065.369663731055	1
0	24321	2065.435687950269	0
0	24358	2068.542974148044	1
0	24360	2068.579912180086	2
0	24361	2068.759289300383	1
0	24365	2068.869712482066	0
0	24370	2069.026598253128	1
0	24371	2069.065453563627	0
0	24406	2071.981368719721	1
0	24407	2072.042979899383	0
0	24418	2072.308490686423	1
0	24419	2072.314828968932	0
0	24422	2072.604159383494	1
0	24423	2072.662711103366	0
0	24470	2076.059124703142	1
0	24473	2076.253173145574	0
0	24508	2080.318204984674	1
0	24510	2080.494061706989	2
0	24511	2080.506698664292	1
0	24515	2080.779031865567	0
0	24540	2082.117754355003	1
0	24545	2082.484955151128	0
0	24550	2082.66872496341	1
0	24551	2082.679763205633	0
0	24588	2085.412289612051	1
0	24589	2085.735157665451	0
0	24592	2085.741248708199	1
0	24593	2085.753449772162	0
0	24596	2085.791743573339	1
0	24598	2085.977306011657	2
0	24599	2085.985283651686	1
0	24603	2086.050711290676	0
0	24628	2088.709411078855	1
0	24629	2088.723871102456	0
0	24642	2089.66340643184	1
0	24643	2089.768711529178	0
0	24670	2091.041620525708	1
0	24671	2091.07646365339	0
0	24674	2091.197535238797	1
0	24675	2091.277065695876	0
0	24718	2095.673191059912	1
0	24719	2095.681050740422	0
0	24724	2095.871247736763	1
0	24725	2095.876184705398	0
0	24728	2095.968152402516	1
0	24732	2095.992821226419	2
0	24733	2096.146201441723	1
0	24735	2096.167200229976	0
0	24760	2099.308463140768	1
0	24761	2099.309198446798	0
0	24790	2102.147195797222	1
0	24791	2102.225723478835	0
0	24808	2102.639657897736	1
0	24809	2102.659455792599	0
0	24902	2110.922375031555	1
0	24906	2111.053630230883	2
0	24907	2111.05951257099	1
0	24911	2111.13627363822	0
0	24928	2111.870052689703	1
0	24929	2112.166026126274	0
0	24932	2112.206007246637	1
0	24934	2112.237994440125	2
0	24935	2112.260763018328	1
0	24938	2112.304375994535	2
0	24944	2112.52954091727	3
0	24945	2112.97557548202	2
0	24949	2113.349705689643	1
0	24952	2113.362600746251	2
0	24953	2113.364160287774	1
0	24955	2113.376543283769	0
0	24988	2116.092302510204	1
0	24990	2116.145231349157	2
0	24991	2116.208042415919	1
0	24993	2116.406835023783	0
0	24996	2116.416679371434	1
0	25001	2116.571759554947	0
0	25008	2116.757963934614	1
0	25009	2116.88761672163	0
0	25070	2121.02692014924	1
0	25073	2121.409802010555	0
0	25150	2131.826744524342	1
0	25152	2132.079031354911	2
0	25153	2132.091504127052	1
0	25156	2132.11760082356	2
0	25157	2132.219714632412	1
0	25159	2132.232570070311	0
0	25162	2132.28690580628	1
0	25163	2132.313000453088	0
0	25178	2133.002501900798	1
0	25179	2133.104630572994	0
0	25204	2135.754435398853	1
0	25206	2135.819287436439	2
0	25207	2136.004692073331	1
0	25211	2136.259080263802	0
0	25240	2139.401474142025	1
0	25242	2139.461265796032	2
0	25243	2139.479656923696	1
0	25245	2139.629069663329	0
0	25286	2145.03914586862	1
0	25288	2145.047890132965	2
0	25289	2145.235665047908	1
0	25291	2145.333396661554	0
0	25342	2150.132707575164	1
0	25343	2150.371615566156	0
0	25348	2150.398988545939	1
0	25349	2150.662568646432	0
0	25390	2153.738718329951	1
0	25392	2153.934875195764	2
0	25394	2154.016089601267	3
0	25395	2154.253118892902	2
0	25398	2154.299755107781	3
0	25399	2154.302356302686	2
0	25403	2154.364951247391	1
0	25405	2154.422078457645	0
0	25432	2156.375586810776	1
0	25433	2156.496201852501	0
0	25438	2156.738423128415	1
0	25439	2157.01475903104	0
0	25514	2167.517057589486	1
0	25517	2167.565050526118	0
0	25520	2167.569519451291	1
0	25523	2167.701073372505	0
0	25600	2173.546348277814	1
0	25601	2173.581845535097	0
0	25604	2173.691208324855	1
0	25606	2173.702785459769	2
0	25607	2173.705294438832	1
0	25611	2173.72777563159	0
0	25640	2174.994594225374	1
0	25641	2175.056960318478	0
0	25648	2175.368028651866	1
0	25649	2175.372288718536	0
0	25672	2177.894877001145	1
0	25673	2178.143044529426	0
0	25684	2179.950628519228	1
0	25685	2180.036524883058	0
0	25708	2180.609671875218	1
0	25709	2180.729038305156	0
0	25720	2181.230246959201	1
0	25722	2181.544966676127	2
0	25723	2181.585452328741	1
0	25725	2181.718588838373	0
0	25768	2185.051106228587	1
0	25769	2185.171559485993	0
0	25858	2194.073858087334	1
0	25860	2194.118790376477	2
0	25862	2194.645692060635	3
0	25863	2194.833753633007	2
0	25867	2195.021513194711	1
0	25869	2195.049304614699	0
0	25882	2196.056222582922	1
0	25883	2196.129489602672	0
0	25886	2196.245648199008	1
0	25889	2196.321524470678	0
0	25896	2196.528854716008	1
0	25898	2196.632664864324	2
0	25902	2196.662837900432	3
0	25904	2196.699507894705	4
0	25905	2196.7006263573	3
0	25909	2196.926267893021	2
0	25913	2197.283094631088	1
0	25916	2197.302183990147	2
0	25917	2197.311712994786	1
0	25920	2197.338030839701	2
0	25921	2197.381470138239	1
0	25925	2197.593345782893	0
0	25936	2197.910248684136	1
0	25938	2198.019656880072	2
0	25939	2198.067224758438	1
0	25942	2198.0789274656	2
0	25943	2198.106693484977	1
0	25945	2198.171895884084	0
0	25950	2198.342480832777	1
0	25951	2198.472368954724	0
0	26008	2204.948591439088	1
0	26009	2204.984077680673	0
0	26036	2207.817252344874	1
0	26037	2207.960892463465	0
0	26040	2208.000512280741	1
0	26043	2208.101374886432	0
0	26068	2209.902444563198	1
0	26069	2209.959138871806	0
0	26074	2210.071889735739	1
0	26075	2210.085561410542	0
0	26092	2211.119029769399	1
0	26093	2211.125598392299	0
0	26102	2211.649321828468	1
0	26105	2211.701085347109	0
0	26116	2212.430792760041	1
0	26117	2212.528539163728	0
0	26128	2213.612347021179	1
0	26129	2213.665734564809	0
0	26194	2220.222863135086	1
0	26196	2220.298713366555	2
0	26198	2220.602400816126	3
0	26200	2220.661018367358	4
0	26201	2220.84379819525	3
0	26204	2220.914756909066	4
0	26205	2220.948794752763	3
0	26207	2220.961279628402	2
0	26209	2221.015081021916	1
0	26211	2221.150333559638	0
0	26332	2231.437248876507	1
0	26333	2231.441624223164	0
0	26432	2240.211448569465	1
0	26433	2240.240508828291	0
0	26464	2241.848136118227	1
0	26465	2241.953570357771	0
0	26468	2241.992932373155	1
0	26470	2242.074107407849	2
0	26471	2242.164765085753	1
0	26478	2242.402485958131	2
0	26479	2242.772969597142	1
0	26481	2242.777387329936	0
0	26484	2242.904535734446	1
0	26485	2242.929268245999	0
0	26546	2245.982616804342	1
0	26549	2246.166755654122	0
0	26638	2254.39004562172	1
0	26640	2254.463134691836	2
0	26641	2254.557876679427	1
0	26643	2254.562086193901	0
0	26650	2254.69345273064	1
0	26651	2254.77367331098	0
0	26660	2255.108367734169	1
0	26661	2255.190879186484	0
0	26668	2255.278534881518	1
0	26671	2255.594351733071	0
0	26716	2259.425143548515	1
0	26717	2259.523052219798	0
0	26720	2259.651108244262	1
0	26723	2259.939743868641	0
0	26734	2260.744963498917	1
0	26735	2260.79692981622	0
0	26774	2264.631100511912	1
0	26777	2264.962970949365	0
0	26788	2265.559057189576	1
0	26790	2265.581008556234	2
0	26792	2265.581838291721	3
0	26793	2265.586072458646	2
0	26795	2265.805428419024	1
0	26797	2265.806857376529	0
0	26842	2269.183370392145	1
0	26843	2269.228530049517	0
0	26926	2279.949628326774	1
0	26927	2280.169846604562	0
0	26944	2282.365095231551	1
0	26945	2282.442358099107	0
0	26948	2282.4628614249	1
0	26951	2282.723799440282	0
0	27016	2289.487064895341	1
0	27017	2289.532521404287	0
0	27044	2292.16447004971	1
0	27045	2292.302031128768	0
0	27070	2294.684386593629	1
0	27071	2294.686366717827	0
0	27074	2294.68720524726	1
0	27075	2294.727347762976	0
0	27100	2297.321081166634	1
0	27101	2297.373023349349	0
0	27112	2299.711580619823	1
0	27113	2300.181487505593	0
0	27158	2306.239183123274	1
0	27159	2306.481304793422	0
0	27190	2308.127603062205	1
0	27191	2308.65517283722	0
0	27214	2310.486233790512	1
0	27216	2310.489916883677	2
0	27217	2310.493467864673	1
0	27220	2310.611641444937	2
0	27221	2310.754727340118	1
0	27223	2310.911291884753	0
0	27272	2314.518443322724	1
0	27274	2314.528568442076	2
0	27275	2314.790024412424	1
0	27277	2314.934312103123	0
0	27290	2315.723102286429	1
0	27291	2315.734577003828	0
0	27344	2319.527347203169	1
0	27345	2319.528278500513	0
0	27388	2323.690107856981	1
0	27389	2324.108147863033	0
0	27442	2330.84727866633	1
0	27443	2330.847858747544	0
0	27454	2331.701872995367	1
0	27456	2331.807042125622	2
0	27457	2331.940135348177	1
0	27461	2332.07101770098	0
0	27478	2335.226616825977	1
0	27479	2335.277111042064	0
0	27484	2335.345398598854	1
0	27485	2335.417934241663	0
0	27526	2339.653734619042	1
0	27528	2339.665501660757	2
0	27529	2339.749915028773	1
0	27533	2339.899743659915	0
0	27560	2341.606874493169	1
0	27563	2341.782590463047	0
0	27574	2343.997393146539	1
0	27575	2344.024699343733	0
0	27598	2345.557008667109	1
0	27599	2345.721610443243	0
0	27626	2347.335445753738	1
0	27628	2347.569726977458	2
0	27629	2347.86232918058	1
0	27631	2347.876566917605	0
0	27652	2350.291819916129	1
0	27653	2350.407990758688	0
0	27680	2352.507339215129	1
0	27681	2352.547741356886	0
0	27772	2363.424429628351	1
0	27773	2363.576010136222	0
0	27796	2367.57780202376	1
0	27797	2367.756828174079	0
0	27820	2369.511063084386	1
0	27821	2369.574911888879	0
0	27898	2382.696830924249	1
0	27899	2382.704085658879	0
0	27928	2384.668193871636	1
0	27929	2384.863080666911	0
0	27940	2385.956195125579	1
0	27942	2385.993422255854	2
0	27944	2386.191873630846	3
0	27945	2386.289615901258	2
0	27947	2386.386985642455	1
0	27949	2386.391309842316	0
0	27980	2388.568032227483	1
0	27982	2388.592093207072	2
0	27983	2388.745071134447	1
0	27985	2388.750582912382	0
0	28024	2392.928920362572	1
0	28025	2392.93809856344	0
0	28036	2394.396714357378	1
0	28037	2394.567433336058	0
0	28066	2397.61504040749	1
0	28068	2397.645228337172	2
0	28069	2397.90382609007	1
0	28074	2398.016058863438	2
0	28075	2398.107156720875	1
0	28077	2398.108396675298	0
0	28080	2398.134841289737	1
0	28081	2398.153422102957	0
0	28114	2401.047665515676	1
0	28115	2401.155109412652	0
0	28174	2407.207158830379	1
0	28175	2407.217701657076	0
0	28240	2412.093351964511	1
0	28241	2412.299153122391	0
0	28246	2412.547772860783	1
0	28248	2412.580862819834	2
0	28250	2412.656653974986	3
0	28251	2412.671360496082	2
0	28255	2412.860475382083	1
0	28259	2412.988923002405	0
0	28276	2414.692673295132	1
0	28277	2414.807193667615	0
0	28288	2415.664882174899	1
0	28289	2415.716127991711	0
0	28300	2416.13549546151	1
0	28301	2416.187055526091	0
0	28312	2417.396884168178	1
0	28313	2417.407080087439	0
0	28348	2420.343519649299	1
0	28350	2420.523996982952	2
0	28352	2420.650319101962	3
0	28353	2421.011355605881	2
0	28358	2421.174813855306	3
0	28359	2421.18923509225	2
0	28361	2421.213050126435	1
0	28363	2421.242197563424	0
0	28384	2423.09227774911	1
0	28385	2423.25073144611	0
0	28390	2423.427641747106	1
0	28391	2423.473219932199	0
0	28402	2424.326073216905	1
0	28403	2424.444659467754	0
0	28438	2427.34503815989	1
0	28440	2427.365967650658	2
0	28441	2427.426701795223	1
0	28445	2427.69710461495	0
0	28468	2429.487917305562	1
0	28470	2429.791176962976	2
0	28471	2429.884431035336	1
0	28476	2429.999978780187	2
0	28478	2430.380315056833	3
0	28480	2430.457468506876	4
0	28481	2430.680174421838	3
0	28483	2430.724630567634	2
0	28489	2431.009963029366	1
0	28491	2431.060506871838	0
0	28498	2431.472164879939	1
0	28500	2431.639379539396	2
0	28501	2431.752479126781	1
0	28505	2431.760983469919	0
0	28546	2435.967412265696	1
0	28547	2436.121940896127	0
0	28654	2448.280224709824	1
0	28655	2448.350079221701	0
0	28660	2448.641646589293	1
0	28661	2448.919391632897	0
0	28676	2449.321655300769	1
0	28677	2449.333502428592	0
0	28684	2449.650539221964	1
0	28685	2449.655787024752	0
0	28738	2454.704876987916	1
0	28739	2454.814435267211	0
0	28748	2455.415879870762	1
0	28749	2455.42423620152	0
0	28792	2457.730925770365	1
0	28793	2457.745927376244	0
0	28796	2457.822467538688	1
0	28798	2457.853396296988	2
0	28802	2458.317452198798	3
0	28803	2458.335918449476	2
0	28806	2458.341893823927	3
0	28807	2458.589404684274	2
0	28814	2458.740128932324	3
0	28816	2458.962219517071	4
0	28817	2459.018969379855	3
0	28821	2459.089489110192	2
0	28826	2459.352551020458	3
0	28827	2459.43883317373	2
0	28829	2459.473887106383	1
0	28833	2459.554349649137	0
0	28852	2461.632444630983	1
0	28853	2461.842861123476	0
0	28864	2462.56955160501	1
0	28865	2462.583644563344	0
0	28904	2465.341178659509	1
0	28907	2465.51495960069	0
0	28940	2469.574687056863	1
0	28944	2469.679132697707	2
0	28946	2469.778105010483	3
0	28947	2469.866207008099	2
0	28951	2469.965183758129	1
0	28955	2470.144240432055	0
0	28978	2472.953243685144	1
0	28979	2472.997658216603	0
0	29002	2474.137485784709	1
0	29003	2474.18493070421	0
0	29080	2482.258343303805	1
0	29082	2482.319107582877	2
0	29083	2482.585863354162	1
0	29087	2482.594314229983	0
0	29092	2482.739823361768	1
0	29093	2482.740419367521	0
0	29116	2485.292283274631	1
0	29117	2485.387169660456	0
0	29158	2487.471604027746	1
0	29159	2487.491492889544	0
0	29188	2489.3609440949	1
0	29189	2489.367474703194	0
0	29210	2491.703217496071	1
0	29212	2491.999106972297	2
0	29213	2492.00489241542	1
0	29219	2492.308522042277	0
0	29260	2495.676690276321	1
0	29261	2495.746404803351	0
0	29274	2496.042572158596	1
0	29277	2496.158350441497	0
0	29296	2496.905970786703	1
0	29297	2496.965663166289	0
0	29302	2497.282879090484	1
0	29303	2497.321645224824	0
0	29306	2497.326479206436	1
0	29309	2497.378676916694	0
0	29344	2501.090713833094	1
0	29345	2501.255708709416	0
0	29352	2501.468702991567	1
0	29353	2501.562414070274	0
0	29404	2505.439174426742	1
0	29405	2505.666267415568	0
0	29440	2508.982473163309	1
0	29441	2509.170132829237	0
0	29488	2512.619551727872	1
0	29489	2512.739624560297	0
0	29512	2515.131322791368	1
0	29514	2515.157875629686	2
0	29515	2515.35159757887	1
0	29519	2515.448174567711	0
0	29530	2516.55556207716	1
0	29531	2516.735686221673	0
0	29548	2518.731424720351	1
0	29550	2518.944099581991	2
0	29551	2519.128176544735	1
0	29553	2519.212901862345	0
0	29562	2519.606340795733	1
0	29563	2519.657558702835	0
0	29570	2519.80435704538	1
0	29573	2519.952184027473	0
0	29600	2520.90730502306	1
0	29603	2521.014798419186	0
0	29620	2522.589080075873	1
0	29621	2522.81213800669	0
0	29624	2522.914578409166	1
0	29625	2522.964099362884	0
0	29656	2526.588862278134	1
[...]
8	38462	3268.243160853112	6409
8	38472	3268.693962059334	6410
8	38474	3268.778176031572	6411
8	38482	3269.471835639467	6412
8	38486	3269.525048024933	6413
8	38488	3269.551023460683	6414
8	38490	3269.596343153321	6415
8	38496	3269.781838291292	6416
8	38502	3270.432701864817	6417
8	38508	3270.689624779135	6418
8	38518	3271.435730136764	6419
8	38520	3271.514555647822	6420
8	38526	3272.663573362455	6421
8	38534	3273.090559247904	6422
8	38538	3273.33145888071	6423
8	38548	3274.048393380268	6424
8	38554	3274.376671212004	6425
8	38560	3274.518575581464	6426
8	38562	3274.578162701345	6427
8	38570	3278.299599568554	6428
8	38576	3278.50228424593	6429
8	38580	3279.141688012389	6430
8	38586	3279.664407484638	6431
8	38592	3280.459180250516	6432
8	38598	3280.765220056234	6433
8	38608	3281.532581677071	6434
8	38610	3281.681669231633	6435
8	38616	3282.227334687578	6436
8	38626	3282.478903363614	6437
8	38628	3282.589805638218	6438
8	38634	3284.452967125534	6439
8	38644	3285.801458614211	6440
8	38648	3286.078511481567	6441
8	38656	3286.547721724529	6442
8	38662	3286.972123023063	6443
8	38664	3286.986608804582	6444
8	38670	3289.240044453942	6445
8	38676	3289.905561399125	6446
8	38686	3290.998483990648	6447
8	38692	3291.19144739082	6448
8	38698	3291.575195002811	6449
8	38700	3291.661712515124	6450
8	38710	3293.262179463609	6451
8	38718	3294.005159731968	6452
8	38726	3294.375523352496	6453
8	38728	3294.635356151302	6454
8	38730	3294.983277905191	6455
8	38736	3295.492583606369	6456
8	38742	3295.820967612299	6457
8	38748	3296.356439810133	6458
8	38762	3296.970221154566	6459
8	38764	3297.047669840234	6460
8	38766	3297.138504451913	6461
8	38772	3297.609540683937	6462
8	38778	3297.823071884963	6463
8	38786	3299.604242860934	6464
8	38794	3299.995437654194	6465
8	38796	3300.128419272351	6466
8	38804	3301.292991276793	6467
8	38810	3301.454341545399	6468
8	38814	3301.613979055346	6469
8	38820	3302.728241219341	6470
8	38826	3303.923370973779	6471
8	38832	3304.292477688974	6472
8	38840	3305.943507954235	6473
8	38844	3306.142296243363	6474
8	38850	3306.918688692643	6475
8	38858	3308.881953704283	6476
8	38862	3309.090268186387	6477
8	38878	3309.943729862575	6478
8	38884	3310.205175546637	6479
8	38888	3310.254095887122	6480
8	38890	3310.29277411145	6481
8	38892	3310.329471202546	6482
8	38900	3311.151663619538	6483
8	38908	3311.657767517642	6484
8	38914	3312.029403296825	6485
8	38916	3312.089570069552	6486
8	38922	3313.166833455639	6487
8	38928	3313.880698222876	6488
8	38934	3315.272232372356	6489
8	38954	3316.664339925403	6490
8	38958	3316.686660918199	6491
8	38960	3316.731266803968	6492
8	38962	3316.866016004072	6493
8	38964	3316.866501521915	6494
8	38970	3316.997101258224	6495
8	38976	3317.928264841953	6496
8	38984	3318.996208090082	6497
8	38996	3319.519463842843	6498
8	38998	3319.735362492416	6499
8	39000	3319.823803018009	6500
8	39006	3320.7276268391	6501
8	39014	3321.457493977984	6502
8	39020	3321.694158583044	6503
8	39032	3322.106986654499	6504
8	39034	3322.353058865825	6505
8	39036	3322.73188007496	6506
8	39046	3324.145963694201	6507
8	39048	3324.264591797663	6508
8	39054	3325.052384483969	6509
8	39060	3325.740521914407	6510
8	39068	3326.799708710585	6511
8	39076	3327.254559412213	6512
8	39078	3327.863784006749	6513
8	39084	3328.787458731735	6514
8	39090	3329.088022526335	6515
8	39096	3329.674403111174	6516
8	39112	3330.949877107634	6517
8	39116	3331.032235170092	6518
8	39120	3331.112865701086	6519
8	39128	3331.603049155886	6520
8	39132	3331.629812681582	6521
8	39136	3331.970275944082	6522
8	39138	3332.01800635381	6523
8	39144	3332.182309570887	6524
8	39150	3332.960557266346	6525
8	39156	3333.59626545883	6526
8	39162	3334.169684973704	6527
8	39168	3335.033570208039	6528
8	39174	3336.787177416185	6529
8	39180	3337.656452766236	6530
8	39190	3338.025190671027	6531
8	39192	3338.036796566535	6532
8	39206	3338.55849859688	6533
8	39208	3338.65772237122	6534
8	39214	3338.960588787469	6535
8	39216	3339.124986004748	6536
8	39222	3340.331259639403	6537
8	39232	3340.971977402048	6538
8	39234	3341.084093766656	6539
8	39246	3342.236805514862	6540
8	39248	3342.243594047169	6541
8	39256	3342.680120319688	6542
8	39258	3342.736122995708	6543
8	39272	3344.815082046642	6544
8	39278	3344.997047460436	6545
8	39280	3345.16784956832	6546
8	39282	3345.241280331784	6547
8	39292	3345.437210470117	6548
8	39294	3345.513633854755	6549
8	39300	3345.770093798281	6550
8	39306	3346.274461476122	6551
8	39316	3346.641790883867	6552
8	39322	3346.893423999411	6553
8	39324	3347.20117770152	6554
8	39340	3347.603324441319	6555
8	39344	3347.740559841433	6556
8	39346	3347.940570923389	6557
8	39348	3348.283721824408	6558
8	39362	3349.411373930695	6559
8	39366	3349.530377088423	6560
8	39370	3349.713889231988	6561
8	39372	3349.726095223416	6562
8	39380	3351.737280846532	6563
8	39384	3351.989992834069	6564
8	39394	3352.508189788669	6565
8	39396	3352.518867990782	6566
8	39402	3352.911227454491	6567
8	39410	3353.604186249524	6568
8	39414	3353.700092213165	6569
8	39420	3354.341615464708	6570
8	39426	3355.701649098011	6571
8	39432	3356.469590695584	6572
8	39438	3357.377906950845	6573
8	39444	3357.535317236102	6574
8	39450	3358.196772157944	6575
8	39456	3358.620769992568	6576
8	39466	3359.246505252857	6577
8	39470	3359.290387932509	6578
8	39474	3359.585619158004	6579
8	39480	3359.778518830988	6580
8	39486	3360.902925672325	6581
8	39492	3362.631730575601	6582
8	39502	3363.307013000861	6583
8	39504	3363.324881215462	6584
8	39512	3363.579515688627	6585
8	39530	3363.929677167853	6586
8	39532	3364.32729143834	6587
8	39534	3364.413015717439	6588
8	39536	3364.4352902928	6589
8	39542	3364.557722863672	6590
8	39550	3364.686061061792	6591
8	39556	3365.11446738159	6592
8	39568	3365.658076605659	6593
8	39572	3365.943178516058	6594
8	39574	3365.988277780679	6595
8	39578	3366.882364669628	6596
8	39584	3367.176702931794	6597
8	39588	3367.308955117066	6598
8	39594	3367.607159030028	6599
8	39604	3368.362656184435	6600
8	39610	3368.654089896051	6601
8	39612	3368.924953385167	6602
8	39626	3369.597759103773	6603
8	39628	3369.671422045847	6604
8	39630	3370.267167824584	6605
8	39636	3371.30599468262	6606
8	39642	3372.075924172528	6607
8	39648	3372.393876558164	6608
8	39666	3373.571342136757	6609
8	39668	3373.632440118046	6610
8	39670	3373.679880057437	6611
8	39672	3373.709274014938	6612
8	39678	3374.031312170878	6613
8	39684	3374.379870765622	6614
8	39694	3374.799301182886	6615
8	39696	3375.233201176136	6616
8	39706	3376.407765770846	6617
8	39708	3376.477848343109	6618
8	39718	3378.424472600783	6619
8	39720	3378.837259479067	6620
8	39730	3379.639325198069	6621
8	39736	3379.732994591335	6622
8	39738	3379.943986396381	6623
8	39744	3380.766572001362	6624
8	39750	3381.25777543961	6625
8	39756	3383.584507945516	6626
8	39766	3385.289913002281	6627
8	39768	3385.33041503225	6628
8	39774	3385.493741574589	6629
8	39782	3386.530930926096	6630
8	39790	3386.842519360101	6631
8	39800	3387.353902196506	6632
8	39802	3387.393580152539	6633
8	39808	3387.814860906591	6634
8	39810	3387.839101201032	6635
8	39820	3388.468232708413	6636
8	39822	3388.471304455483	6637
8	39834	3389.031751838614	6638
8	39846	3389.655649259432	6639
8	39848	3389.675084181414	6640
8	39850	3389.686393048629	6641
8	39858	3390.146403272376	6642
8	39862	3390.495133672173	6643
8	39864	3390.617675814261	6644
8	39870	3390.82142641334	6645
8	39876	3391.3716208881	6646
8	39890	3392.089211121599	6647
8	39892	3392.175458766654	6648
8	39894	3392.500925953264	6649
8	39900	3393.263245389709	6650
8	39906	3393.713853001774	6651
8	39914	3394.466895496528	6652
8	39920	3394.885738140774	6653
8	39928	3394.94888380982	6654
8	39930	3395.032173534191	6655
8	39936	3395.628419279755	6656
8	39946	3396.599370024103	6657
8	39952	3396.974042920528	6658
8	39958	3397.032991429518	6659
8	39962	3397.239900026424	6660
8	39966	3397.494089065364	6661
8	39972	3398.481170659478	6662
8	39986	3399.542507505224	6663
8	39996	3399.72348739801	6664
8	40000	3399.852247152193	6665
8	40002	3399.864507782528	6666
8	40006	3400.464354201092	6667
8	40008	3400.869258949538	6668
8	40014	3401.365333472852	6669
8	40028	3403.332639495043	6670
8	40030	3403.747280155265	6671
8	40032	3403.822313847376	6672
8	40038	3404.904181376113	6673
8	40044	3405.928769180131	6674
8	40058	3408.462620869796	6675
8	40068	3408.761728671185	6676
8	40072	3409.066671679653	6677
8	40076	3409.501882791604	6678
8	40078	3409.515470294317	6679
8	40080	3409.525992110087	6680
8	40086	3410.394379268613	6681
8	40092	3411.57507620462	6682
8	40098	3412.105464893631	6683
8	40106	3413.46671292569	6684
8	40110	3413.738732732171	6685
8	40116	3414.251029998127	6686
8	40130	3415.822954332369	6687
8	40132	3415.930670050344	6688
8	40146	3416.226675333504	6689
8	40148	3417.12099301417	6690
8	40150	3417.254614496971	6691
8	40152	3417.261156656869	6692
8	40164	3418.5834108323	6693
8	40166	3418.708209408847	6694
8	40170	3418.755183119699	6695
8	40176	3419.424163180523	6696
8	40182	3419.556351639727	6697
8	40192	3421.21296900176	6698
8	40202	3421.644713175471	6699
8	40208	3421.727531534917	6700
8	40210	3421.852290265123	6701
8	40212	3422.242526599708	6702
8	40218	3424.28302274853	6703
8	40224	3425.030258610754	6704
8	40230	3426.05162563168	6705
8	40238	3427.63732623085	6706
8	40242	3427.743206050998	6707
8	40248	3428.367084284083	6708
8	40254	3428.812560442379	6709
8	40260	3429.154876935879	6710
8	40272	3430.08484210172	6711
8	40276	3430.255248703586	6712
8	40278	3430.26249794883	6713
8	40284	3431.232833923292	6714
8	40290	3431.96070991588	6715
8	40296	3432.475925611895	6716
8	40302	3432.869379902498	6717
8	40308	3433.416143958444	6718
8	40316	3434.484150459666	6719
8	40320	3434.694740387074	6720
8	40332	3435.415172602604	6721
8	40336	3435.734717387331	6722
8	40342	3436.095191575565	6723
8	40346	3436.400075611604	6724
8	40350	3436.444782277994	6725
8	40358	3436.787793569442	6726
8	40362	3436.851644155225	6727
8	40372	3437.166669616288	6728
8	40376	3437.310166016932	6729
8	40386	3437.611328938456	6730
8	40388	3437.685936455479	6731
8	40396	3438.426749642767	6732
8	40398	3438.601818038227	6733
8	40408	3439.387172367515	6734
8	40422	3439.867061651057	6735
8	40424	3440.216942428087	6736
8	40430	3440.642649467599	6737
8	40432	3440.680540150719	6738
8	40434	3440.895976190535	6739
8	40446	3441.62676819824	6740
8	40454	3442.007370039702	6741
8	40456	3442.073063378216	6742
8	40458	3442.418349843207	6743
8	40468	3442.732616744597	6744
8	40474	3442.803637278833	6745
8	40476	3442.837374704198	6746
8	40482	3443.805922996422	6747
8	40490	3444.584106977551	6748
8	40498	3445.199917259115	6749
8	40504	3445.469122705044	6750
8	40508	3445.561000856652	6751
8	40512	3446.11460628685	6752
8	40518	3447.157915442672	6753
8	40524	3448.509733645795	6754
8	40530	3449.735749836916	6755
8	40536	3449.989164406083	6756
8	40542	3450.778434037709	6757
8	40550	3451.197894068851	6758
8	40556	3451.505577753475	6759
8	40560	3451.782558042442	6760
8	40570	3452.612692602309	6761
8	40576	3452.829214082238	6762
8	40578	3453.020221600122	6763
8	40586	3453.294239109517	6764
8	40604	3454.160285798697	6765
8	40608	3454.495716245855	6766
8	40610	3454.534086538539	6767
8	40612	3454.971829898166	6768
8	40618	3455.476217992708	6769
8	40622	3455.564114657612	6770
8	40628	3455.72640708203	6771
8	40634	3456.328634626002	6772
8	40640	3456.574133519176	6773
8	40646	3456.798585769132	6774
8	40654	3457.332068864172	6775
8	40658	3457.826230993672	6776
8	40662	3458.296858736386	6777
8	40668	3458.67840435491	6778
8	40674	3459.352457174318	6779
8	40680	3459.62834529095	6780
8	40688	3460.015047907196	6781
8	40696	3460.37573869777	6782
8	40698	3460.455446339587	6783
8	40706	3462.152399402526	6784
8	40712	3462.304017081468	6785
8	40716	3462.684333762222	6786
8	40722	3463.271702942297	6787
8	40728	3463.612789852177	6788
8	40738	3463.958080065785	6789
8	40748	3464.498306318389	6790
8	40750	3464.528031084727	6791
8	40752	3464.562430737501	6792
8	40760	3465.468814389662	6793
8	40768	3465.96891468095	6794
8	40774	3466.755863327806	6795
8	40778	3466.944084866991	6796
8	40782	3467.015526163128	6797
8	40796	3467.538141700267	6798
8	40798	3467.617090414951	6799
8	40800	3467.859402496329	6800
8	40814	3468.642393591682	6801
8	40816	3468.766082928491	6802
8	40818	3468.978747723754	6803
8	40826	3469.982718465076	6804
8	40830	3470.29145073793	6805
8	40836	3471.712916014112	6806
8	40842	3473.511094090086	6807
8	40848	3474.140820726586	6808
8	40854	3474.604759682449	6809
8	40862	3475.420893424224	6810
8	40876	3476.006941409186	6811
8	40878	3476.01825301833	6812
8	40882	3476.029386463662	6813
8	40884	3476.387591221419	6814
8	40898	3477.782615424336	6815
8	40900	3477.80965147369	6816
8	40908	3477.981863063331	6817
8	40916	3478.569492469421	6818
8	40920	3478.708348332004	6819
8	40924	3478.866692234297	6820
8	40928	3479.163032867359	6821
8	40938	3479.338122612658	6822
8	40940	3479.455578712862	6823
8	40944	3479.734100643014	6824
8	40950	3481.440099356911	6825
8	40956	3482.45285686643	6826
8	40962	3482.822465928588	6827
8	40968	3483.480696899938	6828
8	40974	3484.26000342987	6829
8	40980	3484.716749424255	6830
8	40986	3484.888126089217	6831
8	41000	3486.501383500052	6832
8	41010	3487.041818155389	6833
8	41012	3487.137561765534	6834
8	41014	3487.381994577404	6835
8	41018	3487.498804024496	6836
8	41022	3487.773498901835	6837
8	41028	3489.266368702245	6838
8	41034	3489.998701291289	6839
8	41052	3490.901737886713	6840
8	41054	3491.155106269135	6841
8	41056	3491.167915560856	6842
8	41058	3491.41576698268	6843
8	41068	3491.98298129835	6844
8	41082	3492.435159714606	6845
8	41092	3492.848735763463	6846
8	41094	3492.875001427674	6847
8	41096	3492.910816615736	6848
8	41098	3492.947715077156	6849
8	41100	3493.146235727012	6850
8	41108	3494.532573575431	6851
8	41118	3494.858718942208	6852
8	41122	3494.887472549984	6853
8	41126	3495.423116146439	6854
8	41130	3495.630064845567	6855
8	41136	3495.891151683999	6856
8	41142	3497.788884465053	6857
8	41152	3498.641105689255	6858
8	41154	3498.866337910605	6859
8	41160	3499.743527295765	6860
8	41166	3500.972049931907	6861
8	41178	3501.416234599028	6862
8	41182	3501.749556326446	6863
8	41184	3501.95095633793	6864
8	41190	3502.448787203534	6865
8	41198	3503.362485562713	6866
8	41202	3503.454401354269	6867
8	41210	3504.420962990542	6868
8	41214	3504.772590011322	6869
8	41228	3506.106696893907	6870
8	41230	3506.438247952575	6871
8	41232	3506.513655764247	6872
8	41242	3507.699122410896	6873
8	41246	3507.736091996848	6874
8	41260	3508.509228150006	6875
8	41268	3508.825671638149	6876
8	41270	3508.972418996555	6877
8	41274	3509.08528200433	6878
8	41278	3509.162625903681	6879
8	41280	3509.384981693042	6880
8	41290	3510.025782013647	6881
8	41296	3510.372628146426	6882
8	41298	3510.637916722564	6883
8	41304	3512.533863948274	6884
8	41314	3513.039321249069	6885
8	41316	3513.219398856704	6886
8	41322	3514.436132482833	6887
8	41330	3516.159041650447	6888
8	41334	3516.390907578129	6889
8	41340	3517.414733858695	6890
8	41346	3517.818966487146	6891
8	41352	3518.099007128141	6892
8	41362	3519.440625795041	6893
8	41368	3519.762869868942	6894
8	41370	3519.798608529114	6895
8	41380	3520.493431142158	6896
8	41388	3520.802200473278	6897
8	41392	3520.856329832278	6898
8	41394	3520.912514836793	6899
8	41404	3522.105577651851	6900
8	41406	3522.120404233913	6901
8	41414	3523.320134663167	6902
8	41418	3524.043714150952	6903
8	41430	3525.042122358061	6904
8	41432	3525.080415160519	6905
8	41436	3525.148715482393	6906
8	41442	3525.526444204232	6907
8	41448	3525.756003117559	6908
8	41454	3526.200449626663	6909
8	41462	3526.587972132251	6910
8	41474	3527.040260944022	6911
8	41480	3527.455816022758	6912
8	41482	3527.492216154032	6913
8	41486	3527.703522926152	6914
8	41494	3528.332213265184	6915
8	41496	3528.417736300611	6916
8	41502	3528.811829761568	6917
8	41508	3529.587037148015	6918
8	41524	3530.607379551463	6919
8	41532	3530.716030094246	6920
8	41534	3530.805230799553	6921
8	41538	3531.056645053936	6922
8	41542	3531.357490030941	6923
8	41544	3531.405427302537	6924
8	41550	3532.133160216662	6925
8	41556	3532.291677167814	6926
8	41562	3532.934899395313	6927
8	41568	3533.340332656556	6928
8	41582	3535.94246268366	6929
8	41588	3536.622012259905	6930
8	41590	3536.640539773381	6931
8	41596	3537.105095849514	6932
8	41598	3537.447377927951	6933
8	41604	3537.797905003011	6934
8	41612	3538.704182278063	6935
8	41618	3538.847982651644	6936
8	41622	3539.09818668121	6937
8	41630	3539.245607843126	6938
8	41638	3539.62848838572	6939
8	41642	3539.743286620752	6940
8	41646	3539.913527607957	6941
8	41652	3540.606377645638	6942
8	41662	3541.194609762343	6943
8	41664	3541.244801115868	6944
8	41674	3542.301046974048	6945
8	41676	3542.470889358193	6946
8	41682	3543.438145442962	6947
8	41690	3544.596275868128	6948
8	41694	3544.624783904502	6949
8	41702	3544.931466059308	6950
8	41706	3545.091921675267	6951
8	41716	3546.038142605296	6952
8	41722	3546.431623078473	6953
8	41724	3546.478026156597	6954
8	41730	3546.949115810501	6955
8	41736	3547.350503840293	6956
8	41758	3548.711075945171	6957
8	41760	3548.793645761893	6958
8	41762	3548.993332819883	6959
8	41764	3549.007706935725	6960
8	41772	3549.361056430452	6961
8	41776	3549.468568363324	6962
8	41788	3549.973399165677	6963
8	41792	3550.411066431936	6964
8	41794	3550.50803374358	6965
8	41800	3550.955607355936	6966
8	41810	3551.067755534358	6967
8	41812	3551.36082822429	6968
8	41814	3551.534400062675	6969
8	41820	3551.79544133265	6970
8	41834	3553.243419986023	6971
8	41836	3553.932981703552	6972
8	41838	3554.173393040183	6973
8	41844	3554.78097831114	6974
8	41854	3555.481437960936	6975
8	41856	3555.490640129318	6976
8	41866	3556.69908948276	6977
8	41868	3556.717288175418	6978
8	41874	3556.962788697502	6979
8	41880	3558.470905808731	6980
8	41886	3558.800738358273	6981
8	41892	3559.587730441689	6982
8	41898	3559.640327346696	6983
8	41904	3560.358210970792	6984
8	41914	3560.741712033999	6985
8	41916	3560.775182990163	6986
8	41924	3561.61575466351	6987
8	41928	3561.64588391547	6988
8	41934	3563.092090661933	6989
8	41944	3564.481156017113	6990
8	41948	3564.586742614596	6991
8	41956	3564.865833751799	6992
8	41958	3565.031995831775	6993
8	41964	3565.246904756862	6994
8	41970	3565.844165831905	6995
8	41990	3567.670056859312	6996
8	42000	3568.015151099768	6997
8	42006	3568.360783580141	6998
8	42008	3568.400523668452	6999
8	42010	3568.556639883467	7000
8	42012	3568.672895130225	7001
8	42016	3569.019152480749	7002
8	42018	3569.136854555194	7003
8	42024	3569.49067417189	7004
8	42030	3569.868853406326	7005
8	42036	3570.919685700427	7006
8	42042	3574.03946378414	7007
8	42056	3574.865382971955	7008
8	42058	3574.9204947332	7009
8	42060	3575.130363616797	7010
8	42072	3577.318003475586	7011
8	42074	3577.319444136788	7012
8	42082	3577.88758420875	7013
8	42084	3578.057820565427	7014
8	42090	3578.24525133373	7015
8	42096	3578.966139235762	7016
8	42104	3580.161585261337	7017
8	42108	3580.411226934998	7018
8	42116	3581.044114738504	7019
8	42122	3581.285955336532	7020
8	42134	3581.705995556808	7021
8	42138	3581.98058982311	7022
8	42140	3582.052082654327	7023
8	42146	3582.56881206091	7024
8	42150	3582.936682873416	7025
8	42156	3583.387147681238	7026
8	42164	3583.574543651232	7027
8	42176	3583.788119531276	7028
8	42178	3583.80002133707	7029
8	42184	3584.156979352513	7030
8	42186	3584.335420052277	7031
8	42198	3585.196173631435	7032
8	42204	3585.268585902748	7033
8	42214	3585.795661320843	7034
8	42216	3585.803401646112	7035
8	42218	3585.820071389496	7036
8	42222	3586.330373458484	7037
8	42230	3587.490826743117	7038
8	42234	3588.15568914218	7039
8	42240	3588.599435398894	7040
8	42246	3589.269809189115	7041
8	42252	3590.985248992362	7042
8	42258	3592.47010587844	7043
8	42266	3593.085034270097	7044
8	42282	3593.578870613149	7045
8	42290	3594.078797264216	7046
8	42294	3594.73846118934	7047
8	42298	3595.087166800574	7048
8	42300	3595.146815259157	7049
8	42302	3595.160664597705	7050
8	42306	3595.309935799137	7051
8	42314	3596.309589564585	7052
8	42318	3596.387281433361	7053
8	42324	3598.850953108367	7054
8	42330	3599.452476203076	7055

