version 2
run Net1-0-20241216-15:33:38-11563
attr configname Net1
attr datetime 20241216-15:33:38
attr experiment Net1
attr inifile omnetpp.ini
attr iterationvars ""
attr iterationvarsf ""
attr measurement ""
attr network Net
attr processid 11563
attr repetition 0
attr replication #0
attr resultdir results
attr runnumber 0
attr seedset 4
param **.source*.avgInterArrivalTime 1.5s
param **.queue*.avgServiceTime 0.2s
param **.queue*.LCFS true

vector 0 Net.queue1 qlen:vector ETV
attr interpolationmode sample-hold
attr title "queue length, vector"
vector 1 Net.queue1 queueingTime:vector ETV
attr interpolationmode none
attr title "queueing time at dequeue, vector"
attr unit s
vector 2 Net.queue1 responseTime:vector ETV
attr interpolationmode none
attr title "response time at end of service, vector"
attr unit s
vector 3 Net.sink1 lifetime:vector ETV
attr interpolationmode none
attr title "lifetime of arrived msg, vector"
attr unit s
vector 4 Net.sink1 arrivedMsg:vector ETV
attr interpolationmode none
attr title "number of arrived msg, vector"
0	0	0	0
0	32	21.370182679449	1
0	33	21.600552210768	0
0	36	21.807682400981	1
0	37	22.067529505524	0
0	68	36.036490415203	1
0	69	36.21257131258	0
0	76	36.837274431374	1
0	77	37.126043980029	0
0	104	52.602733922649	1
0	105	52.649468561507	0
0	112	54.255791944597	1
0	113	54.381766015758	0
0	300	119.801173523155	1
0	301	120.276556239615	0
0	308	121.173702086782	1
0	309	121.295446122563	0
0	324	125.546368904897	1
0	326	125.720863120132	2
0	327	125.76881672886	1
0	329	125.999234035645	0
0	332	126.270978467787	1
0	333	126.357364313728	0
0	384	146.441878896178	1
0	385	146.964011939926	0
0	428	163.4500343972	1
0	429	163.873113052194	0
0	448	170.48836755224	1
0	449	170.52144229226	0
0	456	172.106412594168	1
0	457	172.131667415253	0
0	504	202.947729545897	1
0	506	202.971879832812	2
0	507	203.103475082423	1
0	509	203.410216552404	0
0	516	204.337536987336	1
0	517	204.905307432973	0
0	548	216.538497293109	1
0	549	216.664352438208	0
0	552	216.695418086066	1
0	553	217.200286587635	0
0	608	240.056674853116	1
0	609	240.119932403645	0
0	640	253.132522113378	1
0	641	253.591338073735	0
0	676	273.449636345797	1
0	677	273.573437120362	0
0	680	273.5926040172	1
0	681	273.957535244611	0
0	708	287.777747201012	1
0	709	288.325398054758	0
0	712	288.384060166981	1
0	714	288.829255239039	2
0	716	288.859471077762	3
0	717	288.906304166545	2
0	719	289.077998400841	1
0	721	289.25321209581	0
0	724	289.420867827924	1
0	725	289.422973093081	0
0	732	290.172029206631	1
0	733	290.320059446094	0
0	800	322.517275144218	1
0	802	322.910776130516	2
0	803	322.959579783429	1
0	805	322.970351706475	0
0	808	322.978150596686	1
0	809	323.037514683236	0
0	928	380.816164629338	1
0	929	380.919546292547	0
0	956	383.291183393319	1
0	957	383.461488460244	0
0	980	389.920365471296	1
0	981	390.064820438035	0
0	984	390.175715810154	1
0	985	390.820755170839	0
0	992	396.768620806564	1
0	993	396.830275466147	0
0	1008	402.055639855405	1
0	1009	402.332258299016	0
0	1032	408.378725610822	1
0	1033	408.394473582648	0
0	1052	412.882913432748	1
0	1054	412.915254346397	2
0	1055	412.972334760724	1
0	1057	413.14771024446	0
0	1072	418.262004791666	1
0	1073	418.272875709316	0
0	1084	420.890978354906	1
0	1085	421.091867669938	0
0	1168	454.140060300198	1
0	1169	454.214790154646	0
0	1188	459.82419150801	1
0	1189	459.957293585418	0
0	1196	461.356621180698	1
0	1197	461.435103501429	0
0	1200	461.44580851318	1
0	1201	461.650298899891	0
0	1260	481.246459585916	1
0	1261	481.261402340699	0
0	1272	484.701965364008	1
0	1273	484.747145752941	0
0	1280	486.74138154037	1
0	1281	487.239378079182	0
0	1288	487.71086556671	1
0	1289	487.782689449434	0
0	1304	493.685485512567	1
0	1305	493.951650788942	0
0	1396	534.453789202599	1
0	1398	534.549204176249	2
0	1399	534.623527762864	1
0	1401	534.832925981466	0
0	1416	541.321738243819	1
0	1417	541.707099898514	0
0	1432	549.801288326764	1
0	1433	550.048459221126	0
0	1528	591.02486070562	1
0	1529	591.04516029856	0
0	1544	593.934347207295	1
0	1545	594.339688608878	0
0	1548	594.444071980869	1
0	1549	594.696389014791	0
0	1608	625.311277752217	1
0	1610	625.416602733835	2
0	1611	625.459704482743	1
0	1614	625.606895935643	2
0	1616	625.637294256106	3
0	1617	626.262032929259	2
0	1619	626.603519020193	1
0	1622	626.603621429299	2
0	1624	626.758392178796	3
0	1625	626.779458232321	2
0	1628	626.929631218949	3
0	1629	627.145136799243	2
0	1631	627.465697605327	1
0	1633	627.826521811674	0
0	1636	628.023104047646	1
0	1637	628.030553748052	0
0	1680	639.657361761821	1
0	1681	639.74457519995	0
0	1696	647.325178010709	1
0	1697	648.039720681386	0
0	1712	651.432059477844	1
0	1713	651.675704553226	0
0	1728	654.848448374203	1
0	1729	654.889138722222	0
0	1740	662.925605827771	1
0	1741	662.977838033873	0
0	1752	667.943705876444	1
0	1753	668.117067159248	0
0	1756	668.409420318036	1
0	1757	668.533239554254	0
0	1808	683.308494008347	1
0	1809	683.848172996407	0
0	1840	696.799783195978	1
0	1841	697.048031192742	0
0	1884	715.522183559201	1
0	1885	715.777912426927	0
0	1952	749.410737826573	1
0	1953	749.913556251309	0
0	1964	753.837341850585	1
0	1966	754.090629685178	2
0	1967	754.094358110272	1
0	1969	754.53664725573	0
0	2056	796.232221698409	1
0	2058	796.704094225373	2
0	2059	796.794520162954	1
0	2061	796.970150957035	0
0	2064	797.42455094406	1
0	2066	797.525202617988	2
0	2067	798.064161941897	1
0	2069	798.077123373219	0
0	2096	803.67341610655	1
0	2097	803.860036249036	0
0	2108	808.075325339773	1
0	2109	808.362464539987	0
0	2128	816.194392776127	1
0	2129	816.496708631299	0
0	2156	833.053314267231	1
0	2157	833.342879469953	0
0	2160	833.343864678516	1
0	2161	833.345678161714	0
0	2164	833.410704873268	1
0	2166	833.41206550287	2
0	2168	833.777738172487	3
0	2169	834.233379280961	2
0	2171	834.331420077808	1
0	2173	835.803493254611	0
0	2188	841.086189366064	1
0	2189	841.209945909934	0
0	2224	861.679136800711	1
0	2225	861.699214607079	0
0	2228	861.800804614174	1
0	2229	861.939270241372	0
0	2236	863.484408038613	1
0	2237	863.623482289759	0
0	2240	863.655860301268	1
0	2241	864.071119035312	0
0	2280	888.185811268809	1
0	2281	888.199552519061	0
0	2296	897.651637535588	1
0	2297	897.883973825309	0
0	2336	914.580856369406	1
0	2337	914.636720325978	0
0	2340	914.642398528534	1
0	2341	914.656915497998	0
0	2344	914.763496594705	1
0	2345	914.775154093578	0
0	2368	924.682266018992	1
0	2369	924.701963222913	0
0	2388	932.632906484097	1
0	2390	932.795823141124	2
0	2392	933.093216363752	3
0	2394	933.364170715741	4
0	2395	933.532309539409	3
0	2398	934.350147190046	4
0	2399	934.44976099276	3
0	2401	934.509525446647	2
0	2403	934.690433053452	1
0	2405	934.922720166917	0
0	2432	941.828609588044	1
0	2433	942.265077573743	0
0	2444	943.304730153638	1
0	2445	943.329126784175	0
0	2448	943.440115235812	1
0	2449	943.489101326592	0
0	2464	951.238688543506	1
0	2465	951.275948812246	0
0	2476	953.738759927437	1
0	2477	953.745579479454	0
0	2500	959.342945837786	1
0	2502	959.565937362818	2
0	2503	959.600441702763	1
0	2505	959.665393225264	0
0	2508	959.775990090828	1
0	2509	959.991798445883	0
0	2540	980.66160392011	1
0	2541	980.860765755839	0
0	2548	983.558561773729	1
0	2549	983.690292285101	0
0	2552	983.759693265295	1
0	2553	984.049169879597	0
0	2556	984.087012973239	1
0	2558	984.121990244179	2
0	2559	984.204247038947	1
0	2562	984.507937369843	2
0	2563	984.556129898661	1
0	2565	984.709458149585	0
0	2584	989.219775113529	1
0	2585	989.221962711428	0
0	2596	992.30634420732	1
0	2597	992.481400349452	0
0	2608	994.045193792294	1
0	2609	994.111242740947	0
0	2684	1021.702793917898	1
0	2685	1021.980589050964	0
0	2688	1022.333168387064	1
0	2689	1022.45356903337	0
0	2740	1039.636555798519	1
0	2741	1039.752011920214	0
0	2764	1047.235082574792	1
0	2765	1047.337237091044	0
0	2788	1054.594663994811	1
0	2789	1054.679309148009	0
0	2792	1054.802167279091	1
0	2793	1055.003975168538	0
0	2796	1055.095943990168	1
0	2797	1055.157577101644	0
0	2800	1055.233966779003	1
0	2802	1055.300216740633	2
0	2803	1055.42057239156	1
0	2805	1055.7793096104	0
0	2824	1065.33905532268	1
0	2825	1065.476336056487	0
0	2828	1065.759417070723	1
0	2829	1065.995869131388	0
0	2880	1087.435546318642	1
0	2881	1087.557309204016	0
0	2892	1091.083785722241	1
0	2893	1091.089506557079	0
0	2900	1093.304715453225	1
0	2901	1093.745550091907	0
0	2928	1103.154880650977	1
0	2930	1103.269899471054	2
0	2931	1103.32057694649	1
0	2934	1103.680144106119	2
0	2935	1103.945369292791	1
0	2937	1104.081326615929	0
0	2952	1107.159887222859	1
0	2953	1107.224319540999	0
0	2960	1109.450911267347	1
0	2962	1109.611133128367	2
0	2963	1110.097728561339	1
0	2965	1110.178009761279	0
0	2972	1113.045524470786	1
0	2973	1113.155673931327	0
0	2988	1123.108177808703	1
0	2989	1123.488511676014	0
0	3008	1130.227165516224	1
0	3009	1130.47263882857	0
0	3016	1130.522253673098	1
0	3017	1130.891765977883	0
0	3028	1133.679500188816	1
0	3029	1133.753578846506	0
0	3040	1135.972720414682	1
0	3041	1136.123388575373	0
0	3060	1141.944829228266	1
0	3061	1142.375056059621	0
0	3064	1142.388229877016	1
0	3065	1142.871230638714	0
0	3104	1152.190716346177	1
0	3105	1152.473203618488	0
0	3108	1152.540340984052	1
0	3110	1152.826262020243	2
0	3111	1153.277119945661	1
0	3113	1153.420448842625	0
0	3128	1157.08598027366	1
0	3129	1157.148283528603	0
0	3152	1166.528260646428	1
0	3153	1166.848198510029	0
0	3160	1168.443185233663	1
0	3161	1168.51746610956	0
0	3184	1186.072027683641	1
0	3185	1186.168730600411	0
0	3208	1194.673023779352	1
0	3209	1194.746282481636	0
0	3212	1194.751726690386	1
0	3214	1194.821597708976	2
0	3215	1195.072178301997	1
0	3217	1195.081645051472	0
0	3220	1195.09190415123	1
0	3221	1195.249995646685	0
0	3268	1218.602227819704	1
0	3269	1218.627686711796	0
0	3284	1222.545887496224	1
0	3285	1222.760897917099	0
0	3312	1235.303286356971	1
0	3313	1235.331363309051	0
0	3324	1236.892190252668	1
0	3325	1236.898547628417	0
0	3444	1296.745674787351	1
0	3446	1296.809529535307	2
0	3447	1296.828792705988	1
0	3449	1297.083784273365	0
0	3460	1299.318455451089	1
0	3461	1299.337647176091	0
0	3548	1331.107386969582	1
0	3549	1331.508422270673	0
0	3664	1385.858808077287	1
0	3665	1386.033962944899	0
0	3672	1387.217828981886	1
0	3673	1387.747221257245	0
0	3684	1391.133485863655	1
0	3685	1391.50484611395	0
0	3720	1404.905784176336	1
0	3721	1405.025839254752	0
0	3732	1407.496988371224	1
0	3733	1407.937066419372	0
0	3788	1433.771934876448	1
0	3789	1433.876545282549	0
0	3800	1436.029916839006	1
0	3801	1436.088622913109	0
0	3804	1436.270932717231	1
0	3805	1436.443393307482	0
0	3832	1449.752558843431	1
0	3834	1449.804531638283	2
0	3835	1449.894687429693	1
0	3837	1450.078772780681	0
0	3852	1454.473099171569	1
0	3853	1455.11862081899	0
0	3856	1455.297162648541	1
0	3857	1455.497867618908	0
0	3864	1457.550526811202	1
0	3865	1457.84975077915	0
0	3904	1475.080286499123	1
0	3905	1475.176567514465	0
0	4036	1528.357336311162	1
0	4037	1528.775621268482	0
0	4052	1536.506829059583	1
0	4053	1536.672689424791	0
0	4084	1546.607626244781	1
0	4085	1546.705481192726	0
0	4108	1560.472691250354	1
0	4109	1560.756188854137	0
0	4156	1578.44696931523	1
0	4157	1578.582692288847	0
0	4160	1578.672192793318	1
0	4161	1578.713593491146	0
0	4228	1610.086648849498	1
0	4229	1610.386549252051	0
0	4236	1611.496603340803	1
0	4238	1612.004881970335	2
0	4239	1612.037006440122	1
0	4241	1612.069389535461	0
0	4252	1617.108284288767	1
0	4254	1617.409839407597	2
0	4255	1617.454758876108	1
0	4257	1618.225425580329	0
0	4264	1620.198544792238	1
0	4265	1620.31550400601	0
0	4292	1625.291302874817	1
0	4293	1625.525150530399	0
0	4344	1650.0100788005	1
0	4345	1650.121897135386	0
0	4352	1651.568757153045	1
0	4353	1651.993736755224	0
0	4376	1663.397450195028	1
0	4377	1663.939754619572	0
0	4388	1665.268597645668	1
0	4389	1665.709058752845	0
0	4416	1677.443569962335	1
0	4417	1677.549626520728	0
0	4480	1706.990778360465	1
0	4481	1707.139624779252	0
0	4516	1726.765370148934	1
0	4517	1727.045033999066	0
0	4568	1752.106065328381	1
0	4569	1752.125055949352	0
0	4572	1752.442792696067	1
0	4573	1752.443415711293	0
0	4604	1768.00278061724	1
0	4605	1768.016248087134	0
0	4636	1789.336657237253	1
0	4637	1789.418165120297	0
0	4644	1795.239675272498	1
0	4645	1795.892851134246	0
0	4656	1801.957600303473	1
0	4657	1802.144273262873	0
0	4676	1808.142641644324	1
0	4677	1808.416001375611	0
0	4680	1808.499958251536	1
0	4681	1808.554272655184	0
0	4700	1816.341673737779	1
0	4701	1816.690738953128	0
0	4704	1816.968748189943	1
0	4705	1817.120876624635	0
0	4720	1826.467935734946	1
0	4721	1826.55990843014	0
0	4728	1827.16415680301	1
0	4729	1827.248694401967	0
0	4732	1827.453661982761	1
0	4733	1827.608545763488	0
0	4752	1833.664856017814	1
0	4753	1834.22606302809	0
0	4764	1838.840216802406	1
0	4765	1839.275847714716	0
0	4772	1839.626801271159	1
0	4773	1839.729218774448	0
0	4808	1852.153363510718	1
0	4809	1852.206315990023	0
0	4828	1863.769229494107	1
0	4829	1863.945820922562	0
0	4860	1880.996142290395	1
0	4861	1881.060190219058	0
0	4868	1881.751622505823	1
0	4869	1882.164141880241	0
0	4884	1889.017582816316	1
0	4885	1889.330582841106	0
0	4920	1901.515602401379	1
0	4921	1901.527281109449	0
0	4928	1903.152784569376	1
0	4929	1903.263563842126	0
0	4936	1904.420774576726	1
0	4937	1904.835134176971	0
0	4944	1907.685759386833	1
0	4945	1908.044038693678	0
0	4984	1918.185587066799	1
0	4985	1918.291569221876	0
0	4988	1918.309089697361	1
0	4989	1918.652899322973	0
0	4996	1919.32896074552	1
0	4997	1919.443741551766	0
0	5032	1933.179637571393	1
0	5034	1933.366115168375	2
0	5035	1933.612762578057	1
0	5037	1934.288197061954	0
0	5040	1934.544917907398	1
0	5042	1935.331625397175	2
0	5043	1935.521105081898	1
0	5045	1935.903025055991	0
0	5056	1939.741705362129	1
0	5058	1939.958011031546	2
0	5059	1940.31949995623	1
0	5061	1940.530085385371	0
0	5064	1940.630277224763	1
0	5066	1941.15765096436	2
0	5067	1941.182422196259	1
0	5069	1941.315511379311	0
0	5224	1989.516157459099	1
0	5225	1989.591294187784	0
0	5312	2021.049278887736	1
0	5313	2021.206345306614	0
0	5376	2048.17542783652	1
0	5377	2048.211033915955	0
0	5392	2049.603937300713	1
0	5393	2049.670771427019	0
0	5412	2053.630096879357	1
0	5413	2053.734357218663	0
0	5436	2062.490323331582	1
0	5437	2062.783951699142	0
0	5464	2066.789305995547	1
0	5465	2066.90241392609	0
0	5468	2067.21921779937	1
0	5469	2067.358277686926	0
0	5496	2080.069248667472	1
0	5497	2080.171968266191	0
0	5520	2087.826911139294	1
0	5521	2087.942909599231	0
0	5548	2100.290205277812	1
0	5549	2100.36388225864	0
0	5560	2105.172359075071	1
0	5562	2105.534416480496	2
0	5563	2106.032645807419	1
0	5566	2106.225575657689	2
0	5567	2106.462413675978	1
0	5569	2106.655120442468	0
0	5592	2110.929340204496	1
0	5593	2111.00944605822	0
0	5668	2145.28021892492	1
0	5669	2145.448073476379	0
0	5708	2160.998805799897	1
0	5710	2161.351975540939	2
0	5711	2161.392527224734	1
0	5713	2161.693272314963	0
0	5752	2173.483615293218	1
0	5753	2173.978025682073	0
0	5760	2175.143018121877	1
0	5761	2175.312817665965	0
0	5764	2175.465835293608	1
0	5765	2175.597400351932	0
0	5812	2194.09380867655	1
0	5814	2194.185482326439	2
0	5815	2194.39370652657	1
0	5818	2194.60189256877	2
0	5819	2194.889668481989	1
0	5821	2195.065146218291	0
0	5824	2195.145249369579	1
0	5825	2195.25747914924	0
0	5836	2196.354579209335	1
0	5837	2196.357292280496	0
0	5860	2199.777265476898	1
0	5861	2200.153526560724	0
0	5884	2211.056024082434	1
0	5885	2211.274490283393	0
0	5928	2229.431449846314	1
0	5929	2229.619720032594	0
0	5932	2229.74865964731	1
0	5933	2229.911636151592	0
0	5964	2244.393333478657	1
0	5965	2244.45141879037	0
0	5976	2246.703967716793	1
0	5977	2246.751064420153	0
0	6008	2263.94277969417	1
0	6009	2264.047335654849	0
0	6016	2265.505372010686	1
0	6017	2266.218205749969	0
0	6024	2266.757089608448	1
0	6025	2266.820377375024	0
0	6060	2279.046034207804	1
0	6062	2279.49329510071	2
0	6063	2279.54622715749	1
0	6065	2279.708668695254	0
0	6116	2301.753039013889	1
0	6118	2301.754350509034	2
0	6119	2301.806622797269	1
0	6121	2301.827798146271	0
0	6124	2302.110748417877	1
0	6125	2302.119370496519	0
0	6132	2304.307245757939	1
0	6133	2304.560838665224	0
0	6136	2304.612123512635	1
0	6137	2304.796755675501	0
0	6172	2315.45881842091	1
0	6173	2315.632901966553	0
0	6184	2319.561254506616	1
0	6185	2319.747893710512	0
0	6252	2341.96393525458	1
0	6253	2342.503949126755	0
0	6304	2357.90847045766	1
0	6305	2357.9366614245	0
0	6312	2358.671773281023	1
0	6313	2358.776487449271	0
0	6352	2368.602677455323	1
0	6353	2368.77874525654	0
0	6400	2381.797034459563	1
0	6401	2381.826430510687	0
0	6416	2394.841557108383	1
0	6417	2395.166274096887	0
0	6436	2401.031008163876	1
0	6437	2401.099079130296	0
0	6452	2407.719856650933	1
0	6453	2407.847276490773	0
0	6468	2410.800559693414	1
0	6469	2410.865380431105	0
0	6516	2430.138872378603	1
0	6517	2430.534470100389	0
0	6556	2446.848989029609	1
0	6557	2447.011852617048	0
0	6560	2447.034626151279	1
0	6561	2447.066866367368	0
0	6564	2447.076286297783	1
0	6565	2447.24565875774	0
0	6584	2455.268365703689	1
0	6585	2455.404604148957	0
0	6608	2460.952579756247	1
0	6609	2461.03828681602	0
0	6660	2487.52430682354	1
0	6661	2488.002978901842	0
0	6676	2490.887825838057	1
0	6677	2491.290897863687	0
0	6752	2520.423498973866	1
0	6753	2520.435488861265	0
0	6776	2524.82118504014	1
0	6777	2524.950107159253	0
0	6796	2532.471134010267	1
0	6797	2532.84146678785	0
0	6848	2555.677107382832	1
0	6849	2555.937773472426	0
0	6856	2557.036796760551	1
0	6857	2557.090817677434	0
0	6904	2575.768438150861	1
0	6905	2576.117436259098	0
0	6932	2581.649090996537	1
0	6933	2581.826694527192	0
0	6948	2587.072061369675	1
0	6949	2587.288318415253	0
0	6956	2589.984725977078	1
0	6957	2590.106864383933	0
0	6968	2595.085394670262	1
0	6970	2595.119556163597	2
0	6971	2595.15193914966	1
0	6974	2595.403461917991	2
0	6975	2596.109260171822	1
0	6977	2596.366859003218	0
0	6980	2596.816930006579	1
0	6981	2597.218806183387	0
0	7044	2619.005586144089	1
0	7045	2619.122358819014	0
0	7092	2636.968628024217	1
0	7093	2637.087887553914	0
0	7108	2642.679845525059	1
0	7109	2642.701113345031	0
0	7116	2647.006651061588	1
0	7117	2647.072303062145	0
0	7124	2649.546380430965	1
0	7125	2649.557842817619	0
0	7136	2651.700929907045	1
0	7138	2651.787427217379	2
0	7139	2651.885236303871	1
0	7141	2652.122078137517	0
0	7156	2657.729372023271	1
0	7157	2657.778696775252	0
0	7192	2665.163478513229	1
0	7193	2665.367578368033	0
0	7196	2665.838412166493	1
0	7198	2666.043707491832	2
0	7199	2666.051968455434	1
0	7201	2666.278934712123	0
0	7208	2667.824492659354	1
0	7209	2667.90423008915	0
0	7224	2677.247516196793	1
0	7225	2677.335867668598	0
0	7240	2681.817827929816	1
0	7241	2681.883097977515	0
0	7244	2682.010765380641	1
0	7245	2682.377614383233	0
0	7248	2682.787790343101	1
0	7249	2682.797068510949	0
0	7276	2695.960741333297	1
0	7277	2696.05275359316	0
0	7280	2696.129934659387	1
0	7281	2696.219874593148	0
0	7384	2735.946017815637	1
0	7385	2736.2132329491	0
0	7388	2737.597383953958	1
0	7389	2737.722143949988	0
0	7408	2746.708222744009	1
0	7409	2746.79504371918	0
0	7424	2760.197853029611	1
0	7426	2760.534437175401	2
0	7427	2760.803697536533	1
0	7429	2760.986316305863	0
0	7440	2766.058784228155	1
0	7441	2766.458669297414	0
0	7488	2783.25652080273	1
0	7489	2783.261428793632	0
0	7552	2808.535009365238	1
0	7553	2808.722187774856	0
0	7572	2812.184779894743	1
0	7573	2812.243267034859	0
0	7580	2812.883138803032	1
0	7581	2812.955186877328	0
0	7600	2821.450231602254	1
0	7602	2821.608356371126	2
0	7603	2821.818349512968	1
0	7605	2822.098788489059	0
0	7612	2825.175607196649	1
0	7614	2825.180014236821	2
0	7615	2825.214706519616	1
0	7617	2825.231454363331	0
0	7656	2841.17142983368	1
0	7658	2841.46924578127	2
0	7659	2841.768463063504	1
0	7661	2841.931709933019	0
0	7700	2856.461833409524	1
0	7701	2856.497312301477	0
0	7736	2868.973486168195	1
0	7737	2869.062339904288	0
0	7756	2876.81415325599	1
0	7757	2876.990892136596	0
0	7780	2889.090689877415	1
0	7781	2889.104676762822	0
0	7792	2895.501326972667	1
0	7793	2895.728834422848	0
0	7820	2907.005780212259	1
0	7821	2907.035376051583	0
0	7984	2981.863866425667	1
0	7985	2981.889504470236	0
0	8036	3007.139791600048	1
0	8037	3007.298433112953	0
0	8072	3017.410355694102	1
0	8073	3017.640346972364	0
0	8092	3028.454102651133	1
0	8093	3028.506226717947	0
0	8096	3029.17828923553	1
0	8097	3029.439196870351	0
0	8108	3038.445167182536	1
0	8109	3038.576790281562	0
0	8128	3049.614212312097	1
0	8129	3049.629822587262	0
0	8148	3059.349933832837	1
0	8149	3059.989446907647	0
0	8200	3085.921539500642	1
0	8201	3086.023772711783	0
0	8248	3107.792628714488	1
0	8249	3107.938790393107	0
0	8264	3113.104811901665	1
0	8265	3113.127028567572	0
0	8340	3153.639613188853	1
0	8342	3153.830098117755	2
0	8344	3153.964265212617	3
0	8345	3154.140695794972	2
0	8347	3154.194316924092	1
0	8349	3154.202202022537	0
0	8392	3170.792270081413	1
0	8393	3171.414696849219	0
0	8428	3181.430645649799	1
0	8429	3181.636372054709	0
0	8536	3217.942483687782	1
0	8537	3218.475906184669	0
0	8540	3218.47787406747	1
0	8541	3218.842652087017	0
0	8548	3220.282910891151	1
0	8549	3220.731315841465	0
0	8560	3225.455768095186	1
0	8561	3225.496574105716	0
0	8600	3237.158627402646	1
0	8601	3237.75778743175	0
0	8656	3258.108989344006	1
0	8657	3258.206542473423	0
0	8680	3273.789553074876	1
0	8681	3274.281913368277	0
0	8684	3274.453926799885	1
0	8685	3274.503615252789	0
0	8692	3275.414393753336	1
0	8693	3275.421048050117	0
0	8704	3280.119327509773	1
0	8705	3280.217612636132	0
0	8716	3281.836235028256	1
0	8717	3281.906709370333	0
0	8772	3300.079483971502	1
0	8774	3300.226732635424	2
0	8775	3300.671448135071	1
0	8777	3301.059155616313	0
0	8848	3338.747177137224	1
0	8849	3338.762816357588	0
0	8880	3359.069179540333	1
0	8881	3359.203682004263	0
0	8896	3364.026478997237	1
0	8897	3364.096494364738	0
0	8932	3372.930806567669	1
0	8933	3373.278876560634	0
0	8940	3373.859005266496	1
0	8942	3373.945246471264	2
0	8943	3374.08860807395	1
0	8945	3374.293402159803	0
0	9040	3428.834565582411	1
0	9041	3428.849991527068	0
0	9072	3441.82768717187	1
0	9074	3442.15957187319	2
0	9075	3442.768273672001	1
0	9078	3442.829850735805	2
0	9079	3443.162712889915	1
0	9081	3443.347242666169	0
0	9084	3443.532500528989	1
0	9085	3443.572703464147	0
0	9104	3456.02297550875	1
0	9105	3456.096562415125	0
0	9140	3472.331825797321	1
0	9141	3472.439100925945	0
0	9160	3481.163698024356	1
0	9161	3481.380340671559	0
0	9220	3513.776970738158	1
0	9221	3514.071246958156	0
0	9228	3515.380673906843	1
0	9230	3515.546131665121	2
0	9231	3515.760204324624	1
0	9233	3515.954464820467	0
0	9252	3524.345228053074	1
0	9254	3524.572252712275	2
0	9255	3524.625861460301	1
0	9257	3525.035802057435	0
0	9260	3525.829328116829	1
0	9261	3526.248608724146	0
0	9296	3545.49273103923	1
0	9297	3545.650770914231	0
0	9308	3546.485260728808	1
0	9309	3546.603533321615	0
0	9320	3552.17808049064	1
0	9321	3552.256914213788	0
0	9324	3552.793414029899	1
0	9325	3553.015558437125	0
0	9364	3564.52722336198	1
0	9365	3565.065346772922	0
0	9388	3575.064149405139	1
0	9389	3575.35819802619	0
0	9416	3580.889017303016	1
0	9417	3581.082046373731	0
1	2	0	0
1	6	5.118228478777	0
1	10	6.306792456717	0
1	14	11.707235888096	0
1	18	13.58916689862	0
1	22	15.383812996388	0
1	26	15.749003632465	0
1	30	21.360808060409	0
1	33	21.600552210768	0.230369531319
1	37	22.067529505524	0.259847104543
1	42	22.663523363447	0
1	46	24.93051352881	0
1	50	25.260894633145	0
1	54	28.242482097925	0
1	58	34.390071821517	0
1	62	34.658478791757	0
1	66	36.022950345755	0
1	69	36.21257131258	0.176080897377
1	74	36.769527231329	0
1	77	37.126043980029	0.288769548655
1	82	41.545049947682	0
1	86	42.404491562497	0
1	90	46.86771873771	0
1	94	49.182533917842	0
1	98	52.200649037758	0
1	102	52.485874980955	0
1	105	52.649468561507	0.046734638858
1	110	53.979957835941	0
1	113	54.381766015758	0.125974071161
1	118	56.238689158174	0
1	122	57.026187183174	0
1	126	58.152061897495	0
1	130	62.312664004185	0
1	134	63.418927542566	0
1	138	63.590686499073	0
1	142	63.849047443486	0
1	146	65.03090247199	0
1	150	66.145682524109	0
1	154	67.668235002275	0
1	158	68.438216710971	0
1	162	70.012114901058	0
1	166	70.770623297658	0
1	170	72.237537895061	0
1	174	74.425222489559	0
1	178	74.721023073607	0
1	182	75.427410997715	0
1	186	76.474750266604	0
1	190	78.215483791889	0
1	194	78.654384318823	0
1	198	79.868032577998	0
1	202	81.338999883004	0
1	206	84.726868869477	0
1	210	85.40300257624	0
1	214	86.925334945894	0
1	218	87.244097419573	0
1	222	88.277215107745	0
1	226	88.579371493926	0
1	230	92.337948770012	0
1	234	93.185929759277	0
1	238	95.845525624261	0
1	242	96.654302333358	0
1	246	100.179880497375	0
1	250	100.958230731903	0
1	254	101.561578878434	0
1	258	102.83501342918	0
1	262	105.635808214696	0
1	266	108.595884638649	0
1	270	109.954237706239	0
1	274	110.086929895395	0
1	278	111.451150633032	0
1	282	111.873608610048	0
1	286	113.852086300998	0
1	290	117.227805423384	0
1	294	118.31239247057	0
1	298	119.700251611925	0
1	301	120.276556239615	0.47538271646
1	306	120.9662104304	0
1	309	121.295446122563	0.121744035781
1	314	122.603767755519	0
1	318	123.281778408569	0
1	322	125.47174169566	0
1	327	125.76881672886	0.222447823963
1	329	125.999234035645	0.278370915513
1	333	126.357364313728	0.086385845941
1	338	127.355317385092	0
1	342	128.627009176683	0
1	346	131.411043304152	0
1	350	132.414420836282	0
1	354	134.9066582583	0
1	358	135.977429086813	0
1	362	139.89764448639	0
1	366	141.546738344872	0
1	370	141.78827166884	0
1	374	142.468411957983	0
1	378	145.480767719506	0
1	382	146.127600424565	0
1	385	146.964011939926	0.522133043748
1	390	147.401633519045	0
1	394	148.149932586555	0
1	398	149.597090575106	0
1	402	150.458181506437	0
1	406	150.911709549789	0
1	410	151.709457155176	0
1	414	152.524051825282	0
1	418	156.014704486849	0
1	422	161.854231353231	0
1	426	163.319761483669	0
1	429	163.873113052194	0.423078654994
1	434	165.430787114306	0
1	438	167.133788986207	0
1	442	169.757036125197	0
1	446	170.39734047149	0
1	449	170.52144229226	0.03307474002
1	454	171.907803775701	0
1	457	172.131667415253	0.025254821085
1	462	174.244149564509	0
1	466	176.617053796883	0
1	470	177.405015736206	0
1	474	181.723206934362	0
1	478	182.009547857736	0
1	482	186.295744736693	0
1	486	187.235351088807	0
1	490	189.39485359474	0
1	494	191.491312502989	0
1	498	197.452952188355	0
1	502	202.886354169907	0
1	507	203.103475082423	0.155745536526
1	509	203.410216552404	0.438336719592
1	514	204.285839843527	0
1	517	204.905307432973	0.567770445637
1	522	205.944695138025	0
1	526	207.092957790064	0
1	530	208.740389093923	0
1	534	209.613712313271	0
1	538	210.090865391469	0
1	542	214.574564846351	0
1	546	216.528981261707	0
1	549	216.664352438208	0.125855145099
1	553	217.200286587635	0.504868501569
1	558	218.193672677412	0
1	562	218.703266319175	0
1	566	219.488681001123	0
1	570	221.770348571904	0
1	574	222.426120203504	0
1	578	226.327780674834	0
1	582	228.239653221647	0
1	586	229.443850003357	0
1	590	229.743292397766	0
1	594	230.533703029237	0
1	598	232.692497759792	0
1	602	239.724806574702	0
1	606	239.839565140971	0
1	609	240.119932403645	0.063257550529
1	614	242.077543434613	0
1	618	244.769220422952	0
1	622	244.908665047511	0
1	626	247.561473332763	0
1	630	249.879284043527	0
1	634	251.627476359055	0
1	638	252.250582308661	0
1	641	253.591338073735	0.458815960357
1	646	253.816877090244	0
1	650	256.570125026707	0
1	654	257.167089673537	0
1	658	257.751274279648	0
1	662	261.858053412878	0
1	666	265.646409219392	0
1	670	270.841375729136	0
1	674	273.313245884712	0
1	677	273.573437120362	0.123800774565
1	681	273.957535244611	0.364931227411
1	686	274.814160206118	0
1	690	277.722988652755	0
1	694	280.956797040082	0
1	698	282.47620049905	0
1	702	287.154902213384	0
1	706	287.402011837967	0
1	709	288.325398054758	0.547650853746
1	717	288.906304166545	0.522243999564
1	719	289.077998400841	0.248743161802
1	721	289.25321209581	0.393741018048
1	725	289.422973093081	0.002105265157
1	730	290.12668984221	0
1	733	290.320059446094	0.148030239463
1	738	291.329606090748	0
1	742	295.703000944536	0
1	746	296.586520107917	0
1	750	298.054380776394	0
1	754	299.473780420083	0
1	758	303.536887370421	0
1	762	305.526205689057	0
1	766	308.139125497029	0
1	770	308.752995037224	0
1	774	312.323241839989	0
1	778	312.630477732602	0
1	782	313.416805773077	0
1	786	315.422787675679	0
1	790	316.031262218005	0
1	794	319.290364692654	0
1	798	322.246577615755	0
1	803	322.959579783429	0.442304639211
1	805	322.970351706475	0.059575575959
1	809	323.037514683236	0.05936408655
1	814	325.913676931708	0
1	818	326.535189552231	0
1	822	327.284639113079	0
1	826	327.757456408254	0
1	830	327.954718669456	0
1	834	328.87051976243	0
1	838	329.271784226736	0
1	842	330.514043406308	0
1	846	330.8539521847	0
1	850	331.928229833546	0
1	854	336.372427174984	0
1	858	337.069852709621	0
1	862	341.695684963911	0
1	866	341.784046045115	0
1	870	342.977829942985	0
1	874	344.35150681892	0
1	878	349.24705453279	0
1	882	353.136162443791	0
1	886	354.208963688996	0
1	890	356.3464300379	0
1	894	361.935074042164	0
1	898	363.93562844415	0
1	902	368.552864330447	0
1	906	372.745581520619	0
1	910	373.731577473696	0
1	914	375.349325424791	0
1	918	375.646726801647	0
1	922	376.508502820698	0
1	926	379.524766822613	0
1	929	380.919546292547	0.103381663209
1	934	381.3077828283	0
1	938	381.504294838105	0
1	942	381.899960374012	0
1	946	382.100244723707	0
1	950	382.499674481684	0
1	954	383.225414599086	0
1	957	383.461488460244	0.170305066925
1	962	386.028016847261	0
1	966	386.803811307875	0
1	970	388.060616357497	0
1	974	389.577070832653	0
1	978	389.790871965923	0
1	981	390.064820438035	0.144454966739
1	985	390.820755170839	0.645039360685
1	990	396.603035690433	0
1	993	396.830275466147	0.061654659583
1	998	397.592596100802	0
1	1002	400.712506763056	0
1	1006	402.029106050367	0
1	1009	402.332258299016	0.276618443611
1	1014	405.348963695495	0
1	1018	406.076085782228	0
1	1022	406.351483719122	0
1	1026	406.968361066016	0
1	1030	408.321011641922	0
1	1033	408.394473582648	0.015747971826
1	1038	409.925051748352	0
1	1042	411.33787383213	0
1	1046	411.727573308202	0
1	1050	412.560308528417	0
1	1055	412.972334760724	0.089421327976
1	1057	413.14771024446	0.232455898063
1	1062	414.276634714929	0
1	1066	415.160780757083	0
1	1070	417.929059074003	0
1	1073	418.272875709316	0.01087091765
1	1078	419.133337988247	0
1	1082	420.784805998668	0
1	1085	421.091867669938	0.200889315032
1	1090	421.54951886468	0
1	1094	423.287235704862	0
1	1098	423.708934849936	0
1	1102	424.387716436595	0
1	1106	425.679581344035	0
1	1110	426.46959619715	0
1	1114	429.6102903939	0
1	1118	432.558188184974	0
1	1122	435.251630624514	0
1	1126	436.085028230468	0
1	1130	436.401350538802	0
1	1134	437.929097826706	0
1	1138	438.767428730654	0
1	1142	439.824672654632	0
1	1146	441.403919273516	0
1	1150	445.62257454593	0
1	1154	448.099916634807	0
1	1158	448.297159634016	0
1	1162	451.86736684228	0
1	1166	453.562834004333	0
1	1169	454.214790154646	0.074729854448
1	1174	456.104021348705	0
1	1178	457.070453792329	0
1	1182	458.305448863127	0
1	1186	459.577782722383	0
1	1189	459.957293585418	0.133102077408
1	1194	460.498274956699	0
1	1197	461.435103501429	0.078482320731
1	1201	461.650298899891	0.204490386711
1	1206	463.37538708013	0
1	1210	463.968966925038	0
1	1214	464.940805720011	0
1	1218	469.37724149924	0
1	1222	472.414311745354	0
1	1226	472.892753406436	0
1	1230	473.659671243005	0
1	1234	474.929937901365	0
1	1238	475.120805121673	0
1	1242	477.506614403395	0
1	1246	478.093407418862	0
1	1250	478.277724763536	0
1	1254	480.120122208844	0
1	1258	481.205248000007	0
1	1261	481.261402340699	0.014942754783
1	1266	482.48745014799	0
1	1270	484.654663314847	0
1	1273	484.747145752941	0.045180388933
1	1278	486.309574591269	0
1	1281	487.239378079182	0.497996538812
1	1286	487.598509609056	0
1	1289	487.782689449434	0.071823882724
1	1294	488.850528669971	0
1	1298	493.041649561492	0
1	1302	493.58701701325	0
1	1305	493.951650788942	0.266165276375
1	1310	496.513532843336	0
1	1314	500.936621714266	0
1	1318	501.949791112409	0
1	1322	505.537071002922	0
1	1326	509.12649908472	0
1	1330	511.115818103214	0
1	1334	513.785511048671	0
1	1338	514.050624394014	0
1	1342	516.852345773433	0
1	1346	517.658208813861	0
1	1350	518.164961334281	0
1	1354	519.402794281254	0
1	1358	522.325343001459	0
1	1362	523.176883194481	0
1	1366	523.298322140632	0
1	1370	523.806318494625	0
1	1374	524.310180054559	0
1	1378	526.101468434745	0
1	1382	530.755307146414	0
1	1386	531.953560196187	0
1	1390	532.392325812921	0
1	1394	534.214016616326	0
1	1399	534.623527762864	0.169738560265
1	1401	534.832925981466	0.283721805217
1	1406	539.600672990223	0
1	1410	540.307485083616	0
1	1414	541.206445115286	0
1	1417	541.707099898514	0.385361654695
1	1422	542.301727701144	0
1	1426	543.699383413942	0
1	1430	549.768732753213	0
1	1433	550.048459221126	0.247170894362
1	1438	550.892110019533	0
1	1442	551.892648369921	0
1	1446	553.364457118175	0
1	1450	556.242211905427	0
1	1454	557.276042981608	0
1	1458	558.551029285678	0
1	1462	559.598433260271	0
1	1466	561.986139988142	0
1	1470	565.547827538866	0
1	1474	566.132202662322	0
1	1478	568.065393470368	0
1	1482	569.660649034153	0
1	1486	570.361550883922	0
1	1490	572.802159631225	0
1	1494	574.583588898213	0
1	1498	575.599125474504	0
1	1502	576.871802023998	0
1	1506	581.333916081652	0
1	1510	582.867101840961	0
1	1514	584.378441369633	0
1	1518	585.097043987453	0
1	1522	587.38127726532	0
1	1526	590.46937135015	0
1	1529	591.04516029856	0.02029959294
1	1534	591.617565149605	0
1	1538	593.295159347371	0
1	1542	593.806477587861	0
1	1545	594.339688608878	0.405341401583
1	1549	594.696389014791	0.252317033922
1	1554	596.235494643238	0
1	1558	597.283233258228	0
1	1562	598.584710898421	0
1	1566	600.060913111995	0
1	1570	601.209826313441	0
1	1574	606.087847130241	0
1	1578	608.584190499282	0
1	1582	613.545020385789	0
1	1586	615.318065810209	0
1	1590	617.745133757842	0
1	1594	619.832899053912	0
1	1598	624.080707039034	0
1	1602	624.705009249355	0
1	1606	625.293288321107	0
1	1611	625.459704482743	0.148426730526
1	1617	626.262032929259	0.845430195424
1	1619	626.603519020193	0.99662308455
1	1625	626.779458232321	1.142163976215
1	1629	627.145136799243	0.541515369944
1	1631	627.465697605327	0.707305426531
1	1633	627.826521811674	0.896890592725
1	1637	628.030553748052	0.007449700406
1	1642	630.717815971657	0
1	1646	631.988821375354	0
1	1650	632.598300339759	0
1	1654	634.408301148259	0
1	1658	634.720116022337	0
1	1662	635.327095288168	0
1	1666	635.52043356541	0
1	1670	637.232818323991	0
1	1674	638.3964760203	0
1	1678	639.264795997805	0
1	1681	639.74457519995	0.087213438129
1	1686	642.4412507617	0
1	1690	643.198676938412	0
1	1694	646.849422260387	0
1	1697	648.039720681386	0.714542670677
1	1702	648.846248820663	0
1	1706	650.852400410082	0
1	1710	651.130582515631	0
1	1713	651.675704553226	0.243645075382
1	1718	653.602123034511	0
1	1722	653.74262615719	0
1	1726	654.718765303392	0
1	1729	654.889138722222	0.040690348019
1	1734	659.824399122305	0
1	1738	662.528926272456	0
1	1741	662.977838033873	0.052232206102
1	1746	665.706874858754	0
1	1750	667.77152088356	0
1	1753	668.117067159248	0.173361282804
1	1757	668.533239554254	0.123819236218
1	1762	669.949604108875	0
1	1766	671.791728927503	0
1	1770	672.423252637811	0
1	1774	672.630394665548	0
1	1778	673.654803014062	0
1	1782	675.82063768708	0
1	1786	676.925096590831	0
1	1790	677.249346465129	0
1	1794	677.793691126692	0
1	1798	679.918057070977	0
1	1802	680.844283295192	0
1	1806	683.018092341572	0
1	1809	683.848172996407	0.53967898806
1	1814	685.04092918087	0
1	1818	687.451950925662	0
1	1822	690.728652034573	0
1	1826	691.260083718527	0
1	1830	694.908361646968	0
1	1834	696.230048854981	0
1	1838	696.752613906388	0
1	1841	697.048031192742	0.248247996764
1	1846	698.438747752603	0
1	1850	702.91449764757	0
1	1854	704.196233201846	0
1	1858	704.731848459182	0
1	1862	705.332032366729	0
1	1866	706.344026711266	0
1	1870	712.543565367633	0
1	1874	713.388182615994	0
1	1878	714.122771993909	0
1	1882	715.146188442702	0
1	1885	715.777912426927	0.255728867726
1	1890	716.037494478816	0
1	1894	718.529240897121	0
1	1898	721.879890346529	0
1	1902	722.573477273429	0
1	1906	723.560430700504	0
1	1910	727.067868861218	0
1	1914	728.942461737433	0
1	1918	729.860529402047	0
1	1922	734.619906472971	0
1	1926	737.870125774196	0
1	1930	738.801467833955	0
1	1934	739.123894216603	0
1	1938	741.836247969793	0
1	1942	745.254896377709	0
1	1946	746.92680956055	0
1	1950	749.381934730665	0
1	1953	749.913556251309	0.502818424736
1	1958	750.864577033207	0
1	1962	753.332334248067	0
1	1967	754.094358110272	0.257016259687
1	1969	754.53664725573	0.446017570552
1	1974	758.114446812159	0
1	1978	760.401677367104	0
1	1982	761.066937373979	0
1	1986	762.359891725865	0
1	1990	762.747887526914	0
1	1994	763.351549077739	0
1	1998	765.091958051851	0
1	2002	767.240060664531	0
1	2006	770.415693966579	0
1	2010	772.029059239694	0
1	2014	774.438919618671	0
1	2018	774.754180789097	0
1	2022	776.658807564005	0
1	2026	782.592741311626	0
1	2030	786.184434384211	0
1	2034	788.485147461134	0
1	2038	791.837523532425	0
1	2042	792.748205943659	0
1	2046	793.321698533073	0
1	2050	794.849451492875	0
1	2054	796.170429088328	0
1	2059	796.794520162954	0.562298464545
1	2061	796.970150957035	0.266056731662
1	2067	798.064161941897	0.639610997837
1	2069	798.077123373219	0.551920755231
1	2074	799.295744978134	0
1	2078	800.004055547546	0
1	2082	800.19780775487	0
1	2086	801.001299348148	0
1	2090	802.686644047309	0
1	2094	803.645297852014	0
1	2097	803.860036249036	0.186620142486
1	2102	807.630803875327	0
1	2106	808.064200542703	0
1	2109	808.362464539987	0.287139200214
1	2114	808.951925025605	0
1	2118	811.803661839287	0
1	2122	815.872592078558	0
1	2126	816.086992000614	0
1	2129	816.496708631299	0.302315855172
1	2134	818.894405867137	0
1	2138	821.683551990466	0
1	2142	825.379132741892	0
1	2146	827.723552061907	0
1	2150	830.438833820032	0
1	2154	832.992378946026	0
1	2157	833.342879469953	0.289565202722
1	2161	833.345678161714	0.001813483198
1	2169	834.233379280961	0.822674407693
1	2171	834.331420077808	0.919354574938
1	2173	835.803493254611	2.025755082124
1	2178	839.410075278811	0
1	2182	840.626385306425	0
1	2186	840.86661304739	0
1	2189	841.209945909934	0.12375654387
1	2194	844.723422151409	0
1	2198	848.470252168917	0
1	2202	849.788608510395	0
1	2206	851.710471512994	0
1	2210	853.083450501835	0
1	2214	854.955579522581	0
1	2218	860.702726508023	0
1	2222	861.558610520032	0
1	2225	861.699214607079	0.020077806368
1	2229	861.939270241372	0.138465627198
1	2234	863.39337285273	0
1	2237	863.623482289759	0.139074251146
1	2241	864.071119035312	0.415258734044
1	2246	866.875008953933	0
1	2250	871.046038331114	0
1	2254	871.226812495815	0
1	2258	871.601291868226	0
1	2262	878.612721295373	0
1	2266	882.394770088465	0
1	2270	883.878842381093	0
1	2274	884.842421061067	0
1	2278	887.182339139241	0
1	2281	888.199552519061	0.013741250252
1	2286	893.759866324621	0
1	2290	895.9530893867	0
1	2294	897.473329095395	0
1	2297	897.883973825309	0.232336289721
1	2302	899.563202434105	0
1	2306	899.750642203499	0
1	2310	899.98792574858	0
1	2314	902.963807787339	0
1	2318	904.241574505877	0
1	2322	905.483234313705	0
1	2326	907.281354073456	0
1	2330	910.080962618556	0
1	2334	914.480649050909	0
1	2337	914.636720325978	0.055863956572
1	2341	914.656915497998	0.014516969464
1	2345	914.775154093578	0.011657498873
1	2350	920.488305199424	0
1	2354	921.633949744981	0
1	2358	922.340311607762	0
1	2362	923.749894591315	0
1	2366	923.943794828091	0
1	2369	924.701963222913	0.019697203921
1	2374	925.208882391934	0
1	2378	926.893984017362	0
1	2382	927.149406323167	0
1	2386	932.569870487986	0
1	2395	933.532309539409	0.899403055312
1	2399	934.44976099276	1.653937851636
1	2401	934.509525446647	1.416309082895
1	2403	934.690433053452	1.326262337711
1	2405	934.922720166917	0.572572976871
1	2410	936.671020142417	0
1	2414	938.371210169893	0
1	2418	939.084663339191	0
1	2422	939.615424143698	0
1	2426	941.666973269348	0
1	2430	941.795330065626	0
1	2433	942.265077573743	0.436467985699
1	2438	942.60907247945	0
1	2442	943.19468334166	0
1	2445	943.329126784175	0.024396630537
1	2449	943.489101326592	0.04898609078
1	2454	944.4819857961	0
1	2458	949.137007756405	0
1	2462	950.94113998265	0
1	2465	951.275948812246	0.03726026874
1	2470	951.903679220968	0
1	2474	953.617870027427	0
1	2477	953.745579479454	0.006819552017
1	2482	954.067240938288	0
1	2486	954.175444404819	0
1	2490	955.130445463517	0
1	2494	956.312698987929	0
1	2498	959.294329339629	0
1	2503	959.600441702763	0.257495864977
1	2505	959.665393225264	0.099455862446
1	2509	959.991798445883	0.215808355055
1	2514	960.577864315845	0
1	2518	961.122046657197	0
1	2522	968.110883335156	0
1	2526	968.766413865596	0
1	2530	972.340524458707	0
1	2534	979.891883202247	0
1	2538	980.409733032509	0
1	2541	980.860765755839	0.199161835729
1	2546	983.536511036547	0
1	2549	983.690292285101	0.131730511372
1	2553	984.049169879597	0.289476614302
1	2559	984.204247038947	0.117234065708
1	2563	984.556129898661	0.434139654482
1	2565	984.709458149585	0.201520779742
1	2570	985.653290327678	0
1	2574	986.132423864039	0
1	2578	987.353321698722	0
1	2582	989.024759695172	0
1	2585	989.221962711428	0.002187597899
1	2590	990.381379558753	0
1	2594	992.235493311596	0
1	2597	992.481400349452	0.175056142132
1	2602	993.2395532673	0
1	2606	993.932805132864	0
1	2609	994.111242740947	0.066048948653
1	2614	995.350622547653	0
1	2618	995.471227009417	0
1	2622	997.202371252761	0
1	2626	998.251628732045	0
1	2630	1001.245855586195	0
1	2634	1002.221545008855	0
1	2638	1005.093197836568	0
1	2642	1005.757166098975	0
1	2646	1006.731462303652	0
1	2650	1008.113726979799	0
1	2654	1009.876298032093	0
1	2658	1010.422941030696	0
1	2662	1010.498142098628	0
1	2666	1012.29912986953	0
1	2670	1014.434314836189	0
1	2674	1017.599807787048	0
1	2678	1019.00295628515	0
1	2682	1021.401189481307	0
1	2685	1021.980589050964	0.277795133066
1	2689	1022.45356903337	0.120400646306
1	2694	1023.096794758629	0
1	2698	1023.710324359336	0
1	2702	1024.304565661216	0
1	2706	1025.849523983075	0
1	2710	1028.548479920755	0
1	2714	1029.667829315352	0
1	2718	1031.628895750851	0
1	2722	1032.973901433135	0
1	2726	1034.807164498963	0
1	2730	1036.180260485202	0
1	2734	1036.402920589858	0
1	2738	1039.36043655914	0
1	2741	1039.752011920214	0.115456121695
1	2746	1040.119580833918	0
1	2750	1041.266586223399	0
1	2754	1042.965779157938	0
1	2758	1046.922783763726	0
1	2762	1047.160186521072	0
1	2765	1047.337237091044	0.102154516252
1	2770	1048.659436743049	0
1	2774	1049.937756333858	0
1	2778	1051.898170610492	0
1	2782	1052.200764940937	0
1	2786	1054.495187303434	0
1	2789	1054.679309148009	0.084645153198
1	2793	1055.003975168538	0.201807889447
1	2797	1055.157577101644	0.061633111476
1	2803	1055.42057239156	0.186605612557
1	2805	1055.7793096104	0.479092869767
1	2810	1058.081310792364	0
1	2814	1063.750034584557	0
1	2818	1064.566874821802	0
1	2822	1064.813458437602	0
1	2825	1065.476336056487	0.137280733807
1	2829	1065.995869131388	0.236452060665
1	2834	1067.645233853176	0
1	2838	1069.104047062499	0
1	2842	1070.521607427628	0
1	2846	1076.786769119608	0
1	2850	1077.271031225686	0
1	2854	1078.746869233252	0
1	2858	1079.50334639714	0
1	2862	1081.508175805881	0
1	2866	1082.180896580491	0
1	2870	1084.828043671642	0
1	2874	1085.313851400933	0
1	2878	1087.081696488993	0
1	2881	1087.557309204016	0.121762885374
1	2886	1089.581819714104	0
1	2890	1090.678326691592	0
1	2893	1091.089506557079	0.005720834838
1	2898	1093.118847122767	0
1	2901	1093.745550091907	0.440834638682
1	2906	1095.177291766845	0
1	2910	1097.351162317239	0
1	2914	1098.507225961333	0
1	2918	1099.650042121825	0
1	2922	1101.785804672103	0
1	2926	1103.038538599349	0
1	2931	1103.32057694649	0.165696295513
1	2935	1103.945369292791	0.675469821737
1	2937	1104.081326615929	0.40118250981
1	2942	1104.178776361355	0
1	2946	1105.815948647145	0
1	2950	1106.496268779547	0
1	2953	1107.224319540999	0.06443231814
1	2958	1108.892614366283	0
1	2963	1110.097728561339	0.646817293992
1	2965	1110.178009761279	0.566876632912
1	2970	1112.856374947061	0
1	2973	1113.155673931327	0.110149460541
1	2978	1118.640000860791	0
1	2982	1121.476928829468	0
1	2986	1122.995494471779	0
1	2989	1123.488511676014	0.380333867311
1	2994	1123.973109377806	0
1	2998	1127.343706036184	0
1	3002	1128.779072051519	0
1	3006	1129.52720924704	0
1	3009	1130.47263882857	0.245473312346
1	3014	1130.517677732011	0
1	3017	1130.891765977883	0.369512304785
1	3022	1131.682506195358	0
1	3026	1133.331794556364	0
1	3029	1133.753578846506	0.07407865769
1	3034	1135.002637082673	0
1	3038	1135.789182902042	0
1	3041	1136.123388575373	0.150668160691
1	3046	1137.113013009011	0
1	3050	1139.767268222979	0
1	3054	1141.152405203416	0
1	3058	1141.909264656806	0
1	3061	1142.375056059621	0.430226831355
1	3065	1142.871230638714	0.483000761698
1	3070	1143.780056063033	0
1	3074	1145.521306130232	0
1	3078	1146.118380485983	0
1	3082	1146.456527920756	0
1	3086	1148.660293199008	0
1	3090	1148.803269832767	0
1	3094	1149.610378152333	0
1	3098	1151.045179427302	0
1	3102	1152.106324568908	0
1	3105	1152.473203618488	0.282487272311
1	3111	1153.277119945661	0.736778961609
1	3113	1153.420448842625	0.594186822382
1	3118	1154.53028612374	0
1	3122	1154.875684034284	0
1	3126	1156.952207160154	0
1	3129	1157.148283528603	0.062303254943
1	3134	1157.839404480565	0
1	3138	1161.052903492424	0
1	3142	1165.591797679106	0
1	3146	1166.152330833176	0
1	3150	1166.497080362937	0
1	3153	1166.848198510029	0.319937863601
1	3158	1168.330194401703	0
1	3161	1168.51746610956	0.074280875897
1	3166	1177.295661676718	0
1	3170	1177.830863114556	0
1	3174	1182.762982681521	0
1	3178	1184.692474897537	0
1	3182	1185.490128706691	0
1	3185	1186.168730600411	0.09670291677
1	3190	1187.73955771264	0
1	3194	1191.740526851658	0
1	3198	1192.206564947418	0
1	3202	1193.760519043169	0
1	3206	1194.613979542315	0
1	3209	1194.746282481636	0.073258702284
1	3215	1195.072178301997	0.320451611611
1	3217	1195.081645051472	0.260047342496
1	3221	1195.249995646685	0.158091495455
1	3226	1195.642011698936	0
1	3230	1198.037772353055	0
1	3234	1202.357032571057	0
1	3238	1203.150915427922	0
1	3242	1205.390398865312	0
1	3246	1208.665427445856	0
1	3250	1209.110017051976	0
1	3254	1210.5912600884	0
1	3258	1215.20303373243	0
1	3262	1216.489280732497	0
1	3266	1218.413423643376	0
1	3269	1218.627686711796	0.025458892092
1	3274	1219.386304934298	0
1	3278	1220.048694137775	0
1	3282	1222.324304057208	0
1	3285	1222.760897917099	0.215010420875
1	3290	1224.729180356414	0
1	3294	1225.921510224919	0
1	3298	1227.45546274629	0
1	3302	1231.48562162858	0
1	3306	1233.670390705122	0
1	3310	1234.824309430011	0
1	3313	1235.331363309051	0.02807695208
1	3318	1236.045615650496	0
1	3322	1236.442075291694	0
1	3325	1236.898547628417	0.006357375749
1	3330	1238.460614894601	0
1	3334	1239.17816012449	0
1	3338	1244.524335238514	0
1	3342	1244.907066857505	0
1	3346	1246.75725275049	0
1	3350	1247.230084927719	0
1	3354	1250.375513881952	0
1	3358	1251.450518407645	0
1	3362	1254.732920860023	0
1	3366	1258.027533932479	0
1	3370	1265.729941845091	0
1	3374	1267.897300553984	0
1	3378	1269.381335633028	0
1	3382	1270.37333533741	0
1	3386	1273.498415574697	0
1	3390	1274.50283200179	0
1	3394	1278.854539943104	0
1	3398	1280.923073521241	0
1	3402	1282.164557662837	0
1	3406	1282.627798871813	0
1	3410	1283.226714446348	0
1	3414	1283.479886440621	0
1	3418	1285.671473173893	0
1	3422	1287.323998518425	0
1	3426	1289.363875358632	0
1	3430	1290.308559897346	0
1	3434	1295.000946161863	0
1	3438	1295.263604224917	0
1	3442	1295.83515280542	0
1	3447	1296.828792705988	0.083117918637
1	3449	1297.083784273365	0.274254738058
1	3454	1298.426113616307	0
1	3458	1298.92339143647	0
1	3461	1299.337647176091	0.019191725002
1	3466	1300.779074381078	0
1	3470	1303.662166608953	0
1	3474	1303.708931449447	0
1	3478	1304.817713007363	0
1	3482	1305.695348559049	0
1	3486	1311.880934175994	0
1	3490	1312.548067519376	0
1	3494	1312.706630954595	0
1	3498	1318.20264470912	0
1	3502	1319.128319968216	0
1	3506	1320.118415124237	0
1	3510	1321.241409887825	0
1	3514	1321.680292271701	0
1	3518	1323.25020857798	0
1	3522	1325.151339609522	0
1	3526	1326.551597505709	0
1	3530	1327.881483945742	0
1	3534	1328.701913692897	0
1	3538	1330.283842281691	0
1	3542	1330.394369352076	0
1	3546	1331.075591486167	0
1	3549	1331.508422270673	0.401035301091
1	3554	1332.387712157022	0
1	3558	1336.673884236096	0
1	3562	1340.702764332929	0
1	3566	1342.57751606589	0
1	3570	1343.712611065424	0
1	3574	1345.979344356822	0
1	3578	1346.378138593812	0
1	3582	1346.891130636894	0
1	3586	1347.518942951721	0
1	3590	1348.411048753101	0
1	3594	1351.630167020871	0
1	3598	1354.026274679107	0
1	3602	1355.110576788857	0
1	3606	1356.207441481635	0
1	3610	1356.500156317689	0
1	3614	1357.192589766491	0
1	3618	1358.928837213777	0
1	3622	1362.141148439822	0
1	3626	1363.543694242967	0
1	3630	1365.410924916082	0
1	3634	1367.764240832823	0
1	3638	1369.409176087292	0
1	3642	1372.095728865451	0
1	3646	1373.816266113001	0
1	3650	1376.88014344212	0
1	3654	1380.005592833617	0
1	3658	1383.758003797614	0
1	3662	1385.842891988011	0
1	3665	1386.033962944899	0.175154867612
1	3670	1387.068759152781	0
1	3673	1387.747221257245	0.529392275359
1	3678	1390.169852254903	0
1	3682	1391.113233221408	0
1	3685	1391.50484611395	0.371360250295
1	3690	1391.789592889833	0
1	3694	1394.29731271098	0
1	3698	1396.762533494478	0
1	3702	1400.654917025099	0
1	3706	1402.128721040096	0
1	3710	1404.028593542813	0
1	3714	1404.184556463766	0
1	3718	1404.729671376308	0
1	3721	1405.025839254752	0.120055078416
1	3726	1406.271340104096	0
1	3730	1407.173202904624	0
1	3733	1407.937066419372	0.440078048148
1	3738	1409.313909090984	0
1	3742	1411.982425238845	0
1	3746	1412.255960657289	0
1	3750	1415.214495469882	0
1	3754	1415.737257889114	0
1	3758	1418.293558376734	0
1	3762	1419.764811472648	0
1	3766	1420.85429515652	0
1	3770	1421.724570860847	0
1	3774	1424.799732064442	0
1	3778	1426.13956918279	0
1	3782	1428.51259673367	0
1	3786	1433.483583597289	0
1	3789	1433.876545282549	0.104610406101
1	3794	1434.208350167018	0
1	3798	1435.729704803083	0
1	3801	1436.088622913109	0.058706074103
1	3805	1436.443393307482	0.172460590251
1	3810	1440.627263789387	0
1	3814	1443.945421393347	0
1	3818	1447.135348968745	0
1	3822	1447.576165728144	0
1	3826	1448.693987097529	0
1	3830	1449.697019077361	0
1	3835	1449.894687429693	0.142128586262
1	3837	1450.078772780681	0.274241142398
1	3842	1453.356141003632	0
1	3846	1454.12299281358	0
1	3850	1454.404474838557	0
1	3853	1455.11862081899	0.645521647421
1	3857	1455.497867618908	0.200704970367
1	3862	1457.501393534719	0
1	3865	1457.84975077915	0.299223967948
1	3870	1458.964199604805	0
1	3874	1459.600021079295	0
1	3878	1464.967667637614	0
1	3882	1466.98839413082	0
1	3886	1470.252511906663	0
1	3890	1472.522972853258	0
1	3894	1474.057680382205	0
1	3898	1474.156732723483	0
1	3902	1474.987695926138	0
1	3905	1475.176567514465	0.096281015342
1	3910	1479.386617725844	0
1	3914	1480.793618910818	0
1	3918	1481.09390006756	0
1	3922	1481.542637786605	0
1	3926	1482.171385447313	0
1	3930	1483.720044118285	0
1	3934	1484.22077736439	0
1	3938	1488.543048787532	0
1	3942	1489.032706203648	0
1	3946	1492.01917138368	0
1	3950	1493.206335429751	0
1	3954	1493.39346842176	0
1	3958	1494.037845898177	0
1	3962	1494.586545271237	0
1	3966	1501.736367712438	0
1	3970	1502.55038030503	0
1	3974	1504.050359894833	0
1	3978	1504.692601696595	0
1	3982	1507.469096285154	0
1	3986	1508.478253556816	0
1	3990	1509.579206747604	0
1	3994	1512.630316649759	0
1	3998	1512.993700222661	0
1	4002	1513.809063744033	0
1	4006	1515.530264251995	0
1	4010	1516.975675491559	0
1	4014	1518.665836973513	0
1	4018	1523.637785373666	0
1	4022	1524.089535118929	0
1	4026	1524.59617961495	0
1	4030	1527.390891267203	0
1	4034	1528.34807637309	0
1	4037	1528.775621268482	0.41828495732
1	4042	1531.751629638346	0
1	4046	1535.045550567545	0
1	4050	1535.77172383016	0
1	4053	1536.672689424791	0.165860365208
1	4058	1541.557679381033	0
1	4062	1542.170657260804	0
1	4066	1542.368294021093	0
1	4070	1544.05201124916	0
1	4074	1544.506350062484	0
1	4078	1544.78666237627	0
1	4082	1546.489910615293	0
1	4085	1546.705481192726	0.097854947945
1	4090	1553.813787855761	0
1	4094	1554.2128708011	0
1	4098	1554.892757679662	0
1	4102	1559.003726925749	0
1	4106	1560.458210873079	0
1	4109	1560.756188854137	0.283497603783
1	4114	1564.345898379891	0
1	4118	1564.943288019454	0
1	4122	1565.170110560818	0
1	4126	1565.612406346504	0
1	4130	1566.844262398111	0
1	4134	1568.994012772395	0
1	4138	1570.166920568673	0
1	4142	1571.159286280403	0
1	4146	1573.274029935531	0
1	4150	1577.285221558887	0
1	4154	1578.29533673211	0
1	4157	1578.582692288847	0.135722973617
1	4161	1578.713593491146	0.041400697828
1	4166	1582.728384948422	0
1	4170	1586.897368257344	0
1	4174	1588.86817739658	0
1	4178	1590.272770766125	0
1	4182	1593.397319486016	0
1	4186	1595.709949554703	0
1	4190	1597.644584222137	0
1	4194	1598.840236820136	0
1	4198	1600.769549307799	0
1	4202	1601.430327281294	0
1	4206	1604.341924794655	0
1	4210	1606.782723499047	0
1	4214	1607.970562729202	0
1	4218	1608.065740998447	0
1	4222	1608.844742777462	0
1	4226	1609.797863943163	0
1	4229	1610.386549252051	0.299900402553
1	4234	1611.444614762014	0
1	4239	1612.037006440122	0.540403099319
1	4241	1612.069389535461	0.064507565126
1	4246	1615.687054848621	0
1	4250	1616.889533097342	0
1	4255	1617.454758876108	0.346474587341
1	4257	1618.225425580329	0.815586172732
1	4262	1619.747914073524	0
1	4265	1620.31550400601	0.116959213772
1	4270	1621.305257192359	0
1	4274	1621.703500762861	0
1	4278	1621.740689669162	0
1	4282	1623.629980179247	0
1	4286	1624.312237221241	0
1	4290	1625.269197174552	0
1	4293	1625.525150530399	0.233847655582
1	4298	1625.598765328065	0
1	4302	1626.815981294722	0
1	4306	1628.511567249332	0
1	4310	1630.063034456143	0
1	4314	1634.484915976926	0
1	4318	1635.159756361001	0
1	4322	1638.13101894221	0
1	4326	1640.215744175161	0
1	4330	1642.012209500794	0
1	4334	1644.796897502184	0
1	4338	1648.122001849798	0
1	4342	1649.913407684155	0
1	4345	1650.121897135386	0.111818334886
1	4350	1650.325816035111	0
1	4353	1651.993736755224	0.424979602179
1	4358	1652.783336292792	0
1	4362	1658.012206705863	0
1	4366	1659.263284819948	0
1	4370	1661.758553628178	0
1	4374	1663.254564345628	0
1	4377	1663.939754619572	0.542304424544
1	4382	1664.06443437359	0
1	4386	1665.029481775361	0
1	4389	1665.709058752845	0.440461107177
1	4394	1666.209344219137	0
1	4398	1667.538136495231	0
1	4402	1669.932290232642	0
1	4406	1671.543397863765	0
1	4410	1674.395518721625	0
1	4414	1677.34367114322	0
1	4417	1677.549626520728	0.106056558393
1	4422	1681.373567299437	0
1	4426	1682.211459311953	0
1	4430	1683.691244716876	0
1	4434	1684.192742422361	0
1	4438	1684.712031100725	0
1	4442	1685.730773986448	0
1	4446	1690.058846812482	0
1	4450	1690.911207379469	0
1	4454	1695.818442869592	0
1	4458	1700.010944558581	0
1	4462	1702.288451476934	0
1	4466	1703.103429635291	0
1	4470	1703.84034179012	0
1	4474	1706.111220397516	0
1	4478	1706.884579127129	0
1	4481	1707.139624779252	0.148846418787
1	4486	1710.026416894437	0
1	4490	1710.580700201692	0
1	4494	1712.240484216965	0
1	4498	1714.45121659815	0
1	4502	1716.226903333479	0
1	4506	1721.500004915513	0
1	4510	1722.567888187423	0
1	4514	1726.694508289899	0
1	4517	1727.045033999066	0.279663850132
1	4522	1727.681948644091	0
1	4526	1728.837971603685	0
1	4530	1730.178361569237	0
1	4534	1730.563407620692	0
1	4538	1733.054664234612	0
1	4542	1736.443030618617	0
1	4546	1740.87662788018	0
1	4550	1741.563945371637	0
1	4554	1749.027164149298	0
1	4558	1749.754347297951	0
1	4562	1750.197940360873	0
1	4566	1752.05887279118	0
1	4569	1752.125055949352	0.018990620971
1	4573	1752.443415711293	0.000623015226
1	4578	1752.654693235105	0
1	4582	1753.236713882043	0
1	4586	1756.608385856729	0
1	4590	1756.822407469537	0
1	4594	1762.333478326006	0
1	4598	1764.449294969016	0
1	4602	1767.038939187018	0
1	4605	1768.016248087134	0.013467469894
1	4610	1772.109176142011	0
1	4614	1773.498761674636	0
1	4618	1776.996263719669	0
1	4622	1777.59560501407	0
1	4626	1782.432945180772	0
1	4630	1788.29334809807	0
1	4634	1789.069757984066	0
1	4637	1789.418165120297	0.081507883044
1	4642	1794.82592806801	0
1	4645	1795.892851134246	0.653175861748
1	4650	1797.651776134483	0
1	4654	1801.921505618148	0
1	4657	1802.144273262873	0.1866729594
1	4662	1803.901337496585	0
1	4666	1803.999456352344	0
1	4670	1805.112314611511	0
1	4674	1808.016321873079	0
1	4677	1808.416001375611	0.273359731287
1	4681	1808.554272655184	0.054314403648
1	4686	1810.801962618762	0
1	4690	1812.626672147785	0
1	4694	1814.774243952205	0
1	4698	1815.862067199696	0
1	4701	1816.690738953128	0.349065215349
1	4705	1817.120876624635	0.152128434692
1	4710	1818.866804025966	0
1	4714	1825.517075686395	0
1	4718	1826.071830542744	0
1	4721	1826.55990843014	0.091972695194
1	4726	1827.050789902681	0
1	4729	1827.248694401967	0.084537598957
1	4733	1827.608545763488	0.154883780727
1	4738	1830.072648595984	0
1	4742	1830.251331667554	0
1	4746	1830.507712478133	0
1	4750	1833.255117446084	0
1	4753	1834.22606302809	0.561207010276
1	4758	1838.011861798023	0
1	4762	1838.539254572255	0
1	4765	1839.275847714716	0.43563091231
1	4770	1839.616658928991	0
1	4773	1839.729218774448	0.102417503289
1	4778	1840.451663321831	0
1	4782	1841.637230697876	0
1	4786	1847.336038304852	0
1	4790	1849.242971949535	0
1	4794	1849.974219094255	0
1	4798	1850.669793177903	0
1	4802	1851.477381606837	0
1	4806	1851.871308510327	0
1	4809	1852.206315990023	0.052952479305
1	4814	1852.445594672739	0
1	4818	1854.786341351302	0
1	4822	1862.192479414171	0
1	4826	1863.267681440999	0
1	4829	1863.945820922562	0.176591428455
1	4834	1865.113238796804	0
1	4838	1865.384224547576	0
1	4842	1866.6328138863	0
1	4846	1867.203795622369	0
1	4850	1869.37061706888	0
1	4854	1874.717038409149	0
1	4858	1880.897564100811	0
1	4861	1881.060190219058	0.064047928663
1	4866	1881.331807046422	0
1	4869	1882.164141880241	0.412519374418
1	4874	1886.645717605284	0
1	4878	1888.708774528005	0
1	4882	1888.97708349462	0
1	4885	1889.330582841106	0.31300002479
1	4890	1889.649023287811	0
1	4894	1890.091819944092	0
1	4898	1892.833924249857	0
1	4902	1897.222543573635	0
1	4906	1897.678838509088	0
1	4910	1900.11738473204	0
1	4914	1900.683763232999	0
1	4918	1901.514943751081	0
1	4921	1901.527281109449	0.01167870807
1	4926	1903.056350709542	0
1	4929	1903.263563842126	0.11077927275
1	4934	1904.169541305235	0
1	4937	1904.835134176971	0.414359600245
1	4942	1907.359277316527	0
1	4945	1908.044038693678	0.358279306845
1	4950	1908.610464637488	0
1	4954	1909.794874837051	0
1	4958	1910.50238515778	0
1	4962	1910.719803499607	0
1	4966	1911.064775881509	0
1	4970	1912.189344713764	0
1	4974	1912.322949024189	0
1	4978	1915.458539761521	0
1	4982	1918.037048702906	0
1	4985	1918.291569221876	0.105982155077
1	4989	1918.652899322973	0.343809625612
1	4994	1919.274886855191	0
1	4997	1919.443741551766	0.114780806246
1	5002	1926.742401013002	0
1	5006	1926.89892556223	0
1	5010	1928.024682931267	0
1	5014	1929.081195561962	0
1	5018	1930.361103481308	0
1	5022	1931.09703528154	0
1	5026	1932.242393203018	0
1	5030	1933.043884284585	0
1	5035	1933.612762578057	0.433125006664
1	5037	1934.288197061954	0.922081893579
1	5043	1935.521105081898	0.9761871745
1	5045	1935.903025055991	0.571399658816
1	5050	1936.732752272929	0
1	5054	1939.556102898111	0
1	5059	1940.31949995623	0.577794594101
1	5061	1940.530085385371	0.572074353825
1	5067	1941.182422196259	0.552144971496
1	5069	1941.315511379311	0.157860414951
1	5074	1944.005407309876	0
1	5078	1944.859385625073	0
1	5082	1945.474965831796	0
1	5086	1947.566827464092	0
1	5090	1949.640918028433	0
1	5094	1949.925931301514	0
1	5098	1950.82296968223	0
1	5102	1954.11967477417	0
1	5106	1958.476904327118	0
1	5110	1959.222688578588	0
1	5114	1961.966429092465	0
1	5118	1962.602522120598	0
1	5122	1962.829651179309	0
1	5126	1964.832219308258	0
1	5130	1965.766980770705	0
1	5134	1965.81947798886	0
1	5138	1966.795296694869	0
1	5142	1967.227250636097	0
1	5146	1968.063631719747	0
1	5150	1968.67007226519	0
1	5154	1970.55024942329	0
1	5158	1970.726887937338	0
1	5162	1971.90821610473	0
1	5166	1972.615284889549	0
1	5170	1973.525155064489	0
1	5174	1975.098161978786	0
1	5178	1976.152988448684	0
1	5182	1977.344530941894	0
1	5186	1979.202562962922	0
1	5190	1979.904166684042	0
1	5194	1981.869014828889	0
1	5198	1983.603130372817	0
1	5202	1984.176439320017	0
1	5206	1985.703811128624	0
1	5210	1986.618775019859	0
1	5214	1987.286242690587	0
1	5218	1988.963388363004	0
1	5222	1989.244537757591	0
1	5225	1989.591294187784	0.075136728685
1	5230	1990.082184483809	0
1	5234	1993.181412111537	0
1	5238	1993.54850720215	0
1	5242	1994.571170093682	0
1	5246	1998.767233401913	0
1	5250	1998.828476448067	0
1	5254	2000.214714323667	0
1	5258	2001.965329381617	0
1	5262	2002.325810221568	0
1	5266	2007.66955850919	0
1	5270	2008.07261833692	0
1	5274	2009.150082857313	0
1	5278	2010.359910457953	0
1	5282	2011.408364037614	0
1	5286	2013.901821307789	0
1	5290	2015.287430948881	0
1	5294	2016.263767481616	0
1	5298	2016.903703595684	0
1	5302	2019.852162009973	0
1	5306	2020.675547931422	0
1	5310	2020.781706899148	0
1	5313	2021.206345306614	0.157066418878
1	5318	2022.928711379755	0
1	5322	2023.362623827441	0
1	5326	2024.497955745074	0
1	5330	2027.562792825087	0
1	5334	2027.690606923605	0
1	5338	2027.950706051218	0
1	5342	2032.910247609514	0
1	5346	2036.751834850211	0
1	5350	2040.952814943206	0
1	5354	2041.547553539905	0
1	5358	2042.15294637656	0
1	5362	2042.900878402131	0
1	5366	2046.389389564285	0
1	5370	2046.618253296693	0
1	5374	2047.716389195942	0
1	5377	2048.211033915955	0.035606079435
1	5382	2048.649800358102	0
1	5386	2048.763778454869	0
1	5390	2049.515470314823	0
1	5393	2049.670771427019	0.066834126306
1	5398	2050.526497745616	0
1	5402	2052.370960401656	0
1	5406	2052.881957674424	0
1	5410	2053.507372189323	0
1	5413	2053.734357218663	0.104260339306
1	5418	2058.102416199501	0
1	5422	2058.217057312808	0
1	5426	2060.416496912175	0
1	5430	2062.038073204193	0
1	5434	2062.325031300235	0
1	5437	2062.783951699142	0.29362836756
1	5442	2062.931136943229	0
1	5446	2063.315371453199	0
1	5450	2064.211299021495	0
1	5454	2064.823579651933	0
1	5458	2065.094094015647	0
1	5462	2066.697027743476	0
1	5465	2066.90241392609	0.113107930543
1	5469	2067.358277686926	0.139059887556
1	5474	2069.429013426488	0
1	5478	2072.638304328939	0
1	5482	2075.008103270397	0
1	5486	2076.998119377774	0
1	5490	2077.241267496012	0
1	5494	2079.979337423953	0
1	5497	2080.171968266191	0.102719598719
1	5502	2080.655718693313	0
1	5506	2082.000818404485	0
1	5510	2084.666026661491	0
1	5514	2087.40055937437	0
1	5518	2087.75807610497	0
1	5521	2087.942909599231	0.115998459937
1	5526	2088.245477726867	0
1	5530	2089.402382779783	0
1	5534	2093.358254145279	0
1	5538	2095.629329716692	0
1	5542	2096.4180297272	0
1	5546	2099.719598094752	0
1	5549	2100.36388225864	0.073676980828
1	5554	2101.059087771869	0
1	5558	2105.093622859421	0
1	5563	2106.032645807419	0.860286732348
1	5567	2106.462413675978	0.927997195482
1	5569	2106.655120442468	0.429544784779
1	5574	2107.332441018969	0
1	5578	2108.0736903698	0
1	5582	2109.538297892608	0
1	5586	2109.926578258295	0
1	5590	2110.710461277835	0
1	5593	2111.00944605822	0.080105853724
1	5598	2111.447202450325	0
1	5602	2114.815036448817	0
1	5606	2115.785190314247	0
1	5610	2121.076205392661	0
1	5614	2122.493691698585	0
1	5618	2124.477917998603	0
1	5622	2124.826985166296	0
1	5626	2128.620011920409	0
1	5630	2128.868318200821	0
1	5634	2130.802989305534	0
1	5638	2132.642729551482	0
1	5642	2132.757906632195	0
1	5646	2134.099374805089	0
1	5650	2135.484190428417	0
1	5654	2138.277834380933	0
1	5658	2139.497265044927	0
1	5662	2142.944811468975	0
1	5666	2145.216228331209	0
1	5669	2145.448073476379	0.167854551459
1	5674	2146.960063272096	0
1	5678	2148.122284422462	0
1	5682	2149.182713481835	0
1	5686	2151.912070603431	0
1	5690	2152.764479675409	0
1	5694	2153.937254799911	0
1	5698	2157.350368784089	0
1	5702	2157.949276428299	0
1	5706	2160.997320060359	0
1	5711	2161.392527224734	0.393721424837
1	5713	2161.693272314963	0.341296774024
1	5718	2164.320110057395	0
1	5722	2165.473166761804	0
1	5726	2166.533208188827	0
1	5730	2168.646650233552	0
1	5734	2168.922516982957	0
1	5738	2169.876143056408	0
1	5742	2170.390543395447	0
1	5746	2173.142969506254	0
1	5750	2173.478944040492	0
1	5753	2173.978025682073	0.494410388855
1	5758	2174.979031610731	0
1	5761	2175.312817665965	0.169799544088
1	5765	2175.597400351932	0.131565058324
1	5770	2176.510068114006	0
1	5774	2177.177430909662	0
1	5778	2178.563851999015	0
1	5782	2180.809168813578	0
1	5786	2186.351786785063	0
1	5790	2187.741030320424	0
1	5794	2188.323910108548	0
1	5798	2188.798666424175	0
1	5802	2189.722363058563	0
1	5806	2191.566372227433	0
1	5810	2193.602638098809	0
1	5815	2194.39370652657	0.29989785002
1	5819	2194.889668481989	0.70418615555
1	5821	2195.065146218291	0.463253649521
1	5825	2195.25747914924	0.112229779661
1	5830	2195.380290435188	0
1	5834	2196.276894581264	0
1	5837	2196.357292280496	0.002713071161
1	5842	2197.103240565773	0
1	5846	2197.942613293992	0
1	5850	2198.432474344961	0
1	5854	2199.539731670095	0
1	5858	2199.749082860068	0
1	5861	2200.153526560724	0.376261083826
1	5866	2204.550531421368	0
1	5870	2206.018411033133	0
1	5874	2208.562819210061	0
1	5878	2209.632982006109	0
1	5882	2210.892263225259	0
1	5885	2211.274490283393	0.218466200959
1	5890	2212.25302201263	0
1	5894	2213.8352284136	0
1	5898	2217.018933928163	0
1	5902	2217.827302850221	0
1	5906	2218.350628731907	0
1	5910	2218.755117911308	0
1	5914	2221.478972612771	0
1	5918	2223.35320944565	0
1	5922	2227.257925333498	0
1	5926	2228.130153019713	0
1	5929	2229.619720032594	0.18827018628
1	5933	2229.911636151592	0.162976504282
1	5938	2230.665960297774	0
1	5942	2232.210101531823	0
1	5946	2233.061140767463	0
1	5950	2234.870711707956	0
1	5954	2237.373984902204	0
1	5958	2239.61772021898	0
1	5962	2244.333366639028	0
1	5965	2244.45141879037	0.058085311713
1	5970	2244.740424314573	0
1	5974	2246.627599531426	0
1	5977	2246.751064420153	0.04709670336
1	5982	2247.570757116437	0
1	5986	2249.020810779075	0
1	5990	2254.119370452153	0
1	5994	2257.22378141218	0
1	5998	2258.828797853469	0
1	6002	2260.548319901463	0
1	6006	2263.725517711477	0
1	6009	2264.047335654849	0.104555960679
1	6014	2265.326001807397	0
1	6017	2266.218205749969	0.712833739283
1	6022	2266.664956421955	0
1	6025	2266.820377375024	0.063287766576
1	6030	2268.25859119952	0
1	6034	2271.386842242353	0
1	6038	2272.973163049619	0
1	6042	2275.026951408374	0
1	6046	2276.200120333103	0
1	6050	2276.934464292264	0
1	6054	2277.870189493899	0
1	6058	2278.864174406774	0
1	6063	2279.54622715749	0.500192949686
1	6065	2279.708668695254	0.215373594544
1	6070	2281.890508661511	0
1	6074	2283.308212713006	0
1	6078	2284.471204669664	0
1	6082	2288.053960558365	0
1	6086	2288.583508586969	0
1	6090	2291.005522515061	0
1	6094	2291.723069456253	0
1	6098	2294.300565410677	0
1	6102	2298.787477864879	0
1	6106	2299.359679042195	0
1	6110	2300.538443172005	0
1	6114	2301.548347326346	0
1	6119	2301.806622797269	0.05358378338
1	6121	2301.827798146271	0.073447637237
1	6125	2302.119370496519	0.008622078642
1	6130	2304.2288783771	0
1	6133	2304.560838665224	0.253592907285
1	6137	2304.796755675501	0.184632162866
1	6142	2305.128970032743	0
1	6146	2305.456253957431	0
1	6150	2310.247979866178	0
1	6154	2311.249888653554	0
1	6158	2312.067458154981	0
1	6162	2312.465578477455	0
1	6166	2313.621350966366	0
1	6170	2315.427922564207	0
1	6173	2315.632901966553	0.174083545643
1	6178	2316.712823963726	0
1	6182	2319.346272023156	0
1	6185	2319.747893710512	0.186639203896
1	6190	2321.043441198608	0
1	6194	2322.543136963787	0
1	6198	2322.813860446585	0
1	6202	2323.343523585097	0
1	6206	2323.660335850559	0
1	6210	2326.103285766216	0
1	6214	2327.951143484236	0
1	6218	2329.676031743984	0
1	6222	2330.348631460051	0
1	6226	2331.251760900352	0
1	6230	2332.22858280189	0
1	6234	2332.542257909682	0
1	6238	2333.873054125407	0
1	6242	2334.149580784053	0
1	6246	2335.498180967511	0
1	6250	2341.853030485464	0
1	6253	2342.503949126755	0.540013872175
1	6258	2342.745909455231	0
1	6262	2343.343465006412	0
1	6266	2344.549725290369	0
1	6270	2346.018195652995	0
1	6274	2347.129518842786	0
1	6278	2348.17700342803	0
1	6282	2350.821921658783	0
1	6286	2354.005536772375	0
1	6290	2354.379821520102	0
1	6294	2356.453207863863	0
1	6298	2357.431798978137	0
1	6302	2357.749616177873	0
1	6305	2357.9366614245	0.02819096684
1	6310	2358.5698419709	0
1	6313	2358.776487449271	0.104714168248
1	6318	2360.209795744026	0
1	6322	2360.565300898176	0
1	6326	2361.950439966229	0
1	6330	2362.486589424598	0
1	6334	2362.853050160491	0
1	6338	2364.304825140975	0
1	6342	2364.721093494469	0
1	6346	2368.102139479651	0
1	6350	2368.516276990419	0
1	6353	2368.77874525654	0.176067801217
1	6358	2368.98929359593	0
1	6362	2369.725663491912	0
1	6366	2370.491917354766	0
1	6370	2371.228850609625	0
1	6374	2372.280689814726	0
1	6378	2372.723993530904	0
1	6382	2374.149239151134	0
1	6386	2375.032052638055	0
1	6390	2377.723647268792	0
1	6394	2379.115373053893	0
1	6398	2381.028392172687	0
1	6401	2381.826430510687	0.029396051124
1	6406	2388.191620513189	0
1	6410	2391.466215193688	0
1	6414	2394.207019921411	0
1	6417	2395.166274096887	0.324716988504
1	6422	2398.099867403554	0
1	6426	2399.847659318692	0
1	6430	2400.428807600461	0
1	6434	2400.92226786655	0
1	6437	2401.099079130296	0.06807096642
1	6442	2403.243838527407	0
1	6446	2404.886074320291	0
1	6450	2407.675736286985	0
1	6453	2407.847276490773	0.12741983984
1	6458	2408.01186001467	0
1	6462	2410.389671208643	0
1	6466	2410.727123418086	0
1	6469	2410.865380431105	0.064820737691
1	6474	2413.037454953461	0
1	6478	2413.111164072263	0
1	6482	2414.383461033094	0
1	6486	2420.121222177613	0
1	6490	2420.432168425939	0
1	6494	2421.37041194913	0
1	6498	2422.506273689582	0
1	6502	2422.598315540432	0
1	6506	2423.038311696382	0
1	6510	2426.134731133984	0
1	6514	2430.090810237202	0
1	6517	2430.534470100389	0.395597721786
1	6522	2431.978036674383	0
1	6526	2435.220611921411	0
1	6530	2435.913640442868	0
1	6534	2437.612382503396	0
1	6538	2438.768440357241	0
1	6542	2441.054583505329	0
1	6546	2443.661722666437	0
1	6550	2445.555446148819	0
1	6554	2446.360191438725	0
1	6557	2447.011852617048	0.162863587439
1	6561	2447.066866367368	0.032240216089
1	6565	2447.24565875774	0.169372459957
1	6570	2450.549204449867	0
1	6574	2453.786321773873	0
1	6578	2454.303032803133	0
1	6582	2455.199733797359	0
1	6585	2455.404604148957	0.136238445268
1	6590	2455.785225150108	0
1	6594	2456.651531104258	0
1	6598	2458.213550990264	0
1	6602	2459.114095202199	0
1	6606	2460.858395207397	0
1	6609	2461.03828681602	0.085707059773
1	6614	2464.877054632243	0
1	6618	2469.571438558263	0
1	6622	2470.543084704148	0
1	6626	2471.833610577822	0
1	6630	2473.991610873646	0
1	6634	2475.58083904232	0
1	6638	2477.315119073067	0
1	6642	2478.047611535365	0
1	6646	2478.524501167717	0
1	6650	2480.197797442452	0
1	6654	2487.086748928546	0
1	6658	2487.269171355061	0
1	6661	2488.002978901842	0.478672078302
1	6666	2488.629178625107	0
1	6670	2489.709780554396	0
1	6674	2490.80375715303	0
1	6677	2491.290897863687	0.40307202563
1	6682	2491.969636064145	0
1	6686	2492.269744912843	0
1	6690	2493.745707497465	0
1	6694	2493.983966035982	0
1	6698	2494.812257563985	0
1	6702	2498.28067963099	0
1	6706	2498.719044779904	0
1	6710	2502.009993985136	0
1	6714	2503.697104894614	0
1	6718	2506.3954060656	0
1	6722	2506.946518011531	0
1	6726	2512.0744127807	0
1	6730	2513.540349517427	0
1	6734	2514.605720906752	0
1	6738	2516.903449232968	0
1	6742	2518.733438425151	0
1	6746	2519.093784682497	0
1	6750	2520.233184924328	0
1	6753	2520.435488861265	0.011989887399
1	6758	2521.034260105744	0
1	6762	2522.062195092219	0
1	6766	2522.752996951573	0
1	6770	2523.281993138071	0
1	6774	2524.80606049753	0
1	6777	2524.950107159253	0.128922119113
1	6782	2527.879208207156	0
1	6786	2529.410171337928	0
1	6790	2530.896827130685	0
1	6794	2531.948582768657	0
1	6797	2532.84146678785	0.370332777583
1	6802	2533.881136223765	0
1	6806	2534.221845299012	0
1	6810	2535.972969946201	0
1	6814	2536.634287683563	0
1	6818	2536.8017306349	0
1	6822	2539.647242069542	0
1	6826	2545.482361828701	0
1	6830	2548.802518789024	0
1	6834	2549.18038227587	0
1	6838	2551.331250851283	0
1	6842	2553.038944110126	0
1	6846	2555.579968132877	0
1	6849	2555.937773472426	0.260666089594
1	6854	2556.967436994543	0
1	6857	2557.090817677434	0.054020916883
1	6862	2557.619834391648	0
1	6866	2559.38066587548	0
1	6870	2561.184543277186	0
1	6874	2563.411078469273	0
1	6878	2565.988949784047	0
1	6882	2566.77289676939	0
1	6886	2569.758247697622	0
1	6890	2571.624964703493	0
1	6894	2572.624289626751	0
1	6898	2574.776277043958	0
1	6902	2575.473442738597	0
1	6905	2576.117436259098	0.348998108237
1	6910	2577.558043618883	0
1	6914	2578.070561489404	0
1	6918	2578.309451679602	0
1	6922	2578.651718662222	0
1	6926	2580.981749204699	0
1	6930	2581.592640095582	0
1	6933	2581.826694527192	0.177603530655
1	6938	2582.130864433076	0
1	6942	2585.479141807855	0
1	6946	2587.068791700228	0
1	6949	2587.288318415253	0.216257045578
1	6954	2589.844857848834	0
1	6957	2590.106864383933	0.122138406855
1	6962	2591.464839753689	0
1	6966	2594.84462025384	0
1	6971	2595.15193914966	0.066544479398
1	6975	2596.109260171822	0.989704008225
1	6977	2596.366859003218	0.963397085227
1	6981	2597.218806183387	0.401876176808
1	6986	2597.412040836128	0
1	6990	2600.891855893698	0
1	6994	2601.48296973773	0
1	6998	2602.271278544618	0
1	7002	2602.534281777231	0
1	7006	2602.833970560894	0
1	7010	2603.348421704162	0
1	7014	2605.953432415412	0
1	7018	2607.81109035676	0
1	7022	2609.450556069066	0
1	7026	2610.427325729842	0
1	7030	2614.863576873	0
1	7034	2617.20928020101	0
1	7038	2617.624612774928	0
1	7042	2618.644115749836	0
1	7045	2619.122358819014	0.116772674925
1	7050	2620.419953009342	0
1	7054	2622.530205678134	0
1	7058	2622.691064687533	0
1	7062	2624.244918341655	0
1	7066	2626.683534149406	0
1	7070	2628.781808546513	0
1	7074	2629.435037449156	0
1	7078	2632.040004140697	0
1	7082	2633.27610072287	0
1	7086	2634.321273647649	0
1	7090	2636.963972875266	0
1	7093	2637.087887553914	0.119259529697
1	7098	2639.931695605694	0
1	7102	2642.113332485913	0
1	7106	2642.480765279346	0
1	7109	2642.701113345031	0.021267819972
1	7114	2646.848724869231	0
1	7117	2647.072303062145	0.065652000557
1	7122	2649.403557298924	0
1	7125	2649.557842817619	0.011462386654
1	7130	2650.786339118866	0
1	7134	2651.395818348051	0
1	7139	2651.885236303871	0.184306396826
1	7141	2652.122078137517	0.334650920138
1	7146	2652.897755954195	0
1	7150	2655.347200330995	0
1	7154	2657.471744251517	0
1	7157	2657.778696775252	0.049324751981
1	7162	2659.257536587018	0
1	7166	2659.959051312068	0
1	7170	2660.518428001759	0
1	7174	2662.161888256432	0
1	7178	2662.596534935934	0
1	7182	2663.140114152483	0
1	7186	2664.479173803104	0
1	7190	2665.070254868857	0
1	7193	2665.367578368033	0.204099854804
1	7199	2666.051968455434	0.213556288941
1	7201	2666.278934712123	0.235227220291
1	7206	2667.571940146442	0
1	7209	2667.90423008915	0.079737429796
1	7214	2674.028832880873	0
1	7218	2674.895452917958	0
1	7222	2676.893533906362	0
1	7225	2677.335867668598	0.088351471805
1	7230	2677.867419313773	0
1	7234	2678.090860109927	0
1	7238	2681.726328733806	0
1	7241	2681.883097977515	0.065270047699
1	7245	2682.377614383233	0.366849002592
1	7249	2682.797068510949	0.009278167848
1	7254	2683.008542947399	0
1	7258	2684.913067265124	0
1	7262	2686.600786824014	0
1	7266	2687.355263043655	0
1	7270	2689.079785922736	0
1	7274	2695.669149737118	0
1	7277	2696.05275359316	0.092012259863
1	7281	2696.219874593148	0.089939933761
1	7286	2696.313933293659	0
1	7290	2696.727376243945	0
1	7294	2697.734411399652	0
1	7298	2698.435631266882	0
1	7302	2699.272849663678	0
1	7306	2701.466663633138	0
1	7310	2704.678031665415	0
1	7314	2705.247732755938	0
1	7318	2707.323452751401	0
1	7322	2709.031752733267	0
1	7326	2709.630446078811	0
1	7330	2713.187841581502	0
1	7334	2715.2208673485	0
1	7338	2715.507363237817	0
1	7342	2717.975347979928	0
1	7346	2720.549065107445	0
1	7350	2720.986721719253	0
1	7354	2721.254523238638	0
1	7358	2722.100332737996	0
1	7362	2724.256506817021	0
1	7366	2725.287055226113	0
1	7370	2730.027594864389	0
1	7374	2731.28992272992	0
1	7378	2731.791215429411	0
1	7382	2735.938057495061	0
1	7385	2736.2132329491	0.267215133463
1	7389	2737.722143949988	0.12475999603
1	7394	2738.335594255741	0
1	7398	2738.548258732281	0
1	7402	2739.033900219685	0
1	7406	2746.675814996208	0
1	7409	2746.79504371918	0.086820975171
1	7414	2748.651637730387	0
1	7418	2759.535717638765	0
1	7422	2760.143071741232	0
1	7427	2760.803697536533	0.605844506922
1	7429	2760.986316305863	0.451879130462
1	7434	2762.723418997824	0
1	7438	2765.91351661058	0
1	7441	2766.458669297414	0.399885069259
1	7446	2767.238625944268	0
1	7450	2770.417002082094	0
1	7454	2771.573256069578	0
1	7458	2775.747548499293	0
1	7462	2776.063421024513	0
1	7466	2778.26793245908	0
1	7470	2778.986230082754	0
1	7474	2780.767412053588	0
1	7478	2781.559501298668	0
1	7482	2782.290851359889	0
1	7486	2783.028512719351	0
1	7489	2783.261428793632	0.004907990902
1	7494	2784.015118591241	0
1	7498	2785.526928091551	0
1	7502	2785.877568510274	0
1	7506	2787.684620106222	0
1	7510	2789.114777718288	0
1	7514	2791.408976435267	0
1	7518	2795.494626018931	0
1	7522	2800.286652970643	0
1	7526	2801.222231775016	0
1	7530	2803.10361276743	0
1	7534	2805.315728387032	0
1	7538	2807.377934678129	0
1	7542	2808.088750434077	0
1	7546	2808.155347231957	0
1	7550	2808.309137836437	0
1	7553	2808.722187774856	0.187178409618
1	7558	2810.877826117686	0
1	7562	2811.005268628948	0
1	7566	2811.350368956524	0
1	7570	2811.803858223509	0
1	7573	2812.243267034859	0.058487140116
1	7578	2812.837364111881	0
1	7581	2812.955186877328	0.072048074296
1	7586	2815.693553033702	0
1	7590	2816.512253531501	0
1	7594	2820.280774384955	0
1	7598	2821.293180131489	0
1	7603	2821.818349512968	0.368117910714
1	7605	2822.098788489059	0.490432117933
1	7610	2825.098310275055	0
1	7615	2825.214706519616	0.039099322967
1	7617	2825.231454363331	0.05144012651
1	7622	2825.280353818531	0
1	7626	2825.552401732384	0
1	7630	2831.591870186447	0
1	7634	2833.646047784929	0
1	7638	2834.386680580641	0
1	7642	2837.418720621818	0
1	7646	2839.043121252176	0
1	7650	2840.102674324106	0
1	7654	2841.104721186558	0
1	7659	2841.768463063504	0.597033229824
1	7661	2841.931709933019	0.462464151749
1	7666	2842.937360570463	0
1	7670	2845.762852271941	0
1	7674	2846.247096090301	0
1	7678	2849.794449798027	0
1	7682	2850.089222328802	0
1	7686	2850.852166101001	0
1	7690	2852.739754244804	0
1	7694	2853.099690114528	0
1	7698	2856.121315416667	0
1	7701	2856.497312301477	0.035478891953
1	7706	2857.189217414892	0
1	7710	2857.825542558037	0
1	7714	2858.942736576052	0
1	7718	2860.460344157888	0
1	7722	2864.51957619111	0
1	7726	2864.775548653962	0
1	7730	2867.536316353291	0
1	7734	2868.229322424313	0
1	7737	2869.062339904288	0.088853736093
1	7742	2874.102905313972	0
1	7746	2875.371331662979	0
1	7750	2875.542451943599	0
1	7754	2876.738942604438	0
1	7757	2876.990892136596	0.176738880606
1	7762	2881.153237233261	0
1	7766	2881.4977418311	0
1	7770	2886.247101744024	0
1	7774	2887.655700209998	0
1	7778	2888.820920472129	0
1	7781	2889.104676762822	0.013986885407
1	7786	2889.724588460459	0
1	7790	2895.228835928671	0
1	7793	2895.728834422848	0.227507450181
1	7798	2897.397549190698	0
1	7802	2898.286602389879	0
1	7806	2898.809990761643	0
1	7810	2899.083066816612	0
1	7814	2902.269634230332	0
1	7818	2906.869954602943	0
1	7821	2907.035376051583	0.029595839324
1	7826	2907.442919165526	0
1	7830	2907.865343337802	0
1	7834	2910.612167509634	0
1	7838	2911.76489821331	0
1	7842	2912.028624630475	0
1	7846	2913.780197722565	0
1	7850	2914.821881209327	0
1	7854	2916.318573001841	0
1	7858	2917.64807752182	0
1	7862	2923.264216681924	0
1	7866	2924.47197552665	0
1	7870	2925.52635414468	0
1	7874	2930.87789775065	0
1	7878	2932.182854157701	0
1	7882	2932.657680260215	0
1	7886	2934.734121232456	0
1	7890	2935.871969023851	0
1	7894	2938.973308060163	0
1	7898	2939.109496374951	0
1	7902	2945.035476946677	0
1	7906	2948.399876604166	0
1	7910	2949.049291607863	0
1	7914	2951.599920177689	0
1	7918	2956.888696919655	0
1	7922	2960.23416229125	0
1	7926	2960.493411560662	0
1	7930	2961.913751471967	0
1	7934	2962.803951720996	0
1	7938	2965.609653122643	0
1	7942	2966.415098728448	0
1	7946	2967.30776369785	0
1	7950	2967.528644686644	0
1	7954	2970.640914216277	0
[...]
4	6780	2525.510138552872	1695
4	6784	2528.419069637116	1696
4	6788	2529.608843475829	1697
4	6792	2530.970451565995	1698
4	6798	2532.84146678785	1699
4	6800	2532.924509188198	1700
4	6804	2533.997555372608	1701
4	6808	2534.358695518853	1702
4	6812	2536.206118685688	1703
4	6816	2536.650497367484	1704
4	6820	2536.977647211253	1705
4	6824	2540.027202215152	1706
4	6828	2545.49366042391	1707
4	6832	2548.874740672379	1708
4	6836	2549.346247988718	1709
4	6840	2551.431375619497	1710
4	6844	2553.869208497896	1711
4	6850	2555.937773472426	1712
4	6852	2556.061817334987	1713
4	6858	2557.090817677434	1714
4	6860	2557.164050599335	1715
4	6864	2557.706958578758	1716
4	6868	2560.244336782668	1717
4	6872	2561.196446145146	1718
4	6876	2563.478363723928	1719
4	6880	2566.236918012044	1720
4	6884	2566.898579683343	1721
4	6888	2569.941051463876	1722
4	6892	2572.609455881272	1723
4	6896	2572.629039219653	1724
4	6900	2574.835769950031	1725
4	6906	2576.117436259098	1726
4	6908	2576.527392649248	1727
4	6912	2577.966200270722	1728
4	6916	2578.129721682442	1729
4	6920	2578.487927172813	1730
4	6924	2579.018106971486	1731
4	6928	2581.052954913835	1732
4	6934	2581.826694527192	1733
4	6936	2581.873442526573	1734
4	6940	2582.298727873254	1735
4	6944	2585.49852719464	1736
4	6950	2587.288318415253	1737
4	6952	2587.511762008087	1738
4	6958	2590.106864383933	1739
4	6960	2590.799369600355	1740
4	6964	2591.491065563863	1741
4	6972	2595.15193914966	1742
4	6976	2596.109260171822	1743
4	6978	2596.366859003218	1744
4	6982	2597.218806183387	1745
4	6984	2597.401951841267	1746
4	6988	2597.584708668066	1747
4	6992	2601.308278767033	1748
4	6996	2602.002136518562	1749
4	7000	2602.436022688574	1750
4	7004	2602.540755449836	1751
4	7008	2603.259606176749	1752
4	7012	2603.466835227385	1753
4	7016	2607.028098997335	1754
4	7020	2608.038392402968	1755
4	7024	2609.55928966396	1756
4	7028	2610.668372490656	1757
4	7032	2615.273727756519	1758
4	7036	2617.210903143284	1759
4	7040	2617.78252597592	1760
4	7046	2619.122358819014	1761
4	7048	2619.234603131041	1762
4	7052	2620.937112255103	1763
4	7056	2622.592364729706	1764
4	7060	2622.875441801282	1765
4	7064	2624.389786507963	1766
4	7068	2626.719419295887	1767
4	7072	2629.092164317672	1768
4	7076	2629.588638401066	1769
4	7080	2632.201164363964	1770
4	7084	2633.495847584833	1771
4	7088	2634.651834883699	1772
4	7094	2637.087887553914	1773
4	7096	2637.301237191356	1774
4	7100	2640.219737436366	1775
4	7104	2642.332501675782	1776
4	7110	2642.701113345031	1777
4	7112	2642.856998035787	1778
4	7118	2647.072303062145	1779
4	7120	2647.406256757044	1780
4	7126	2649.557842817619	1781
4	7128	2649.622191157538	1782
4	7132	2650.796923114041	1783
4	7140	2651.885236303871	1784
4	7142	2652.122078137517	1785
4	7144	2652.632314583298	1786
4	7148	2652.968990105055	1787
4	7152	2655.626512640812	1788
4	7158	2657.778696775252	1789
4	7160	2658.186500320063	1790
4	7164	2659.528891918241	1791
4	7168	2659.973144444473	1792
4	7172	2660.861335964147	1793
4	7176	2662.469061575261	1794
4	7180	2662.83110333092	1795
4	7184	2663.362041056653	1796
4	7188	2664.482990528018	1797
4	7194	2665.367578368033	1798
4	7200	2666.051968455434	1799
4	7202	2666.278934712123	1800
4	7204	2666.952951947987	1801
4	7210	2667.90423008915	1802
4	7212	2667.947464193579	1803
4	7216	2674.08478324402	1804
4	7220	2674.984211788683	1805
4	7226	2677.335867668598	1806
4	7228	2677.626482150808	1807
4	7232	2677.930406890229	1808
4	7236	2678.325608961771	1809
4	7242	2681.883097977515	1810
4	7246	2682.377614383233	1811
4	7250	2682.797068510949	1812
4	7252	2682.988070536662	1813
4	7256	2683.749718105625	1814
4	7260	2685.076956523335	1815
4	7264	2686.862342347778	1816
4	7268	2687.45261887472	1817
4	7272	2689.108683471966	1818
4	7278	2696.05275359316	1819
4	7282	2696.219874593148	1820
4	7284	2696.312510845412	1821
4	7288	2696.339827901425	1822
4	7292	2697.11417808771	1823
4	7296	2698.219172281799	1824
4	7300	2698.437864646607	1825
4	7304	2699.303652124778	1826
4	7308	2701.648290381526	1827
4	7312	2704.708510464877	1828
4	7316	2705.259617952302	1829
4	7320	2707.652345823144	1830
4	7324	2709.03858427002	1831
4	7328	2709.636895913515	1832
4	7332	2713.369756155217	1833
4	7336	2715.263671479786	1834
4	7340	2715.605525223459	1835
4	7344	2718.480790715682	1836
4	7348	2720.974072092028	1837
4	7352	2721.145441268063	1838
4	7356	2721.537091380049	1839
4	7360	2722.85125000646	1840
4	7364	2724.338502619787	1841
4	7368	2725.513926888618	1842
4	7372	2730.355014212243	1843
4	7376	2731.344553746853	1844
4	7380	2732.486019150983	1845
4	7386	2736.2132329491	1846
4	7390	2737.722143949988	1847
4	7392	2737.795707617899	1848
4	7396	2738.418957617631	1849
4	7400	2738.788920617252	1850
4	7404	2739.132219063719	1851
4	7410	2746.79504371918	1852
4	7412	2747.122902344368	1853
4	7416	2749.430361603572	1854
4	7420	2759.545413438804	1855
4	7428	2760.803697536533	1856
4	7430	2760.986316305863	1857
4	7432	2761.597793104171	1858
4	7436	2762.899944783311	1859
4	7442	2766.458669297414	1860
4	7444	2766.887390717947	1861
4	7448	2767.281268415877	1862
4	7452	2770.586549461425	1863
4	7456	2771.931971892259	1864
4	7460	2775.797830716415	1865
4	7464	2776.237068488459	1866
4	7468	2778.323995913466	1867
4	7472	2779.020730251195	1868
4	7476	2781.079547581581	1869
4	7480	2781.802084044464	1870
4	7484	2782.441148295545	1871
4	7490	2783.261428793632	1872
4	7492	2783.60091897412	1873
4	7496	2784.075809206057	1874
4	7500	2785.843431681157	1875
4	7504	2786.119635101137	1876
4	7508	2787.705303910929	1877
4	7512	2789.399520764354	1878
4	7516	2791.562259152756	1879
4	7520	2795.625597968375	1880
4	7524	2800.400272522935	1881
4	7528	2801.601728986019	1882
4	7532	2803.8227685497	1883
4	7536	2805.415984472288	1884
4	7540	2808.051088118084	1885
4	7544	2808.095828389982	1886
4	7548	2808.263669622818	1887
4	7554	2808.722187774856	1888
4	7556	2808.826157131432	1889
4	7560	2810.994507015682	1890
4	7564	2811.050231951013	1891
4	7568	2811.539416901199	1892
4	7574	2812.243267034859	1893
4	7576	2812.585062352357	1894
4	7582	2812.955186877328	1895
4	7584	2813.513476622489	1896
4	7588	2816.02500741267	1897
4	7592	2816.920477581535	1898
4	7596	2820.708319607708	1899
4	7604	2821.818349512968	1900
4	7606	2822.098788489059	1901
4	7608	2822.115641139545	1902
4	7616	2825.214706519616	1903
4	7618	2825.231454363331	1904
4	7620	2825.254963642227	1905
4	7624	2825.30785475888	1906
4	7628	2825.841686541784	1907
4	7632	2831.833858619304	1908
4	7636	2833.677472225345	1909
4	7640	2834.624645383831	1910
4	7644	2837.656440516278	1911
4	7648	2839.190850140215	1912
4	7652	2840.267127289558	1913
4	7660	2841.768463063504	1914
4	7662	2841.931709933019	1915
4	7664	2842.10771469054	1916
4	7668	2842.986874850874	1917
4	7672	2846.03553996482	1918
4	7676	2846.25382816188	1919
4	7680	2850.045380862841	1920
4	7684	2850.350960048584	1921
4	7688	2851.036995517411	1922
4	7692	2852.758619356007	1923
4	7696	2853.586731800004	1924
4	7702	2856.497312301477	1925
4	7704	2856.630293111665	1926
4	7708	2857.272074535817	1927
4	7712	2858.079559089738	1928
4	7716	2859.060881869277	1929
4	7720	2860.496113281699	1930
4	7724	2864.748491190159	1931
4	7728	2864.883325018811	1932
4	7732	2867.576405728562	1933
4	7738	2869.062339904288	1934
4	7740	2869.141282699792	1935
4	7744	2874.204680195117	1936
4	7748	2875.378982791179	1937
4	7752	2875.751931227878	1938
4	7758	2876.990892136596	1939
4	7760	2877.260670088336	1940
4	7764	2881.244878538654	1941
4	7768	2882.07438839399	1942
4	7772	2886.538337741643	1943
4	7776	2887.691634878548	1944
4	7782	2889.104676762822	1945
4	7784	2889.134466508751	1946
4	7788	2889.895612034924	1947
4	7794	2895.728834422848	1948
4	7796	2896.304100270406	1949
4	7800	2897.595855713449	1950
4	7804	2898.361460989534	1951
4	7808	2898.910741225884	1952
4	7812	2899.524367793816	1953
4	7816	2902.313993440094	1954
4	7822	2907.035376051583	1955
4	7824	2907.265298776733	1956
4	7828	2907.60148768424	1957
4	7832	2908.176299987014	1958
4	7836	2910.691659740954	1959
4	7840	2911.999742296091	1960
4	7844	2912.056330991639	1961
4	7848	2914.171741470755	1962
4	7852	2915.287606448112	1963
4	7856	2916.711337408777	1964
4	7860	2917.962179651124	1965
4	7864	2923.512938054544	1966
4	7868	2924.581637371774	1967
4	7872	2925.53353214554	1968
4	7876	2931.043152205093	1969
4	7880	2932.194707592024	1970
4	7884	2932.733101665608	1971
4	7888	2934.898997768695	1972
4	7892	2935.892941381052	1973
4	7896	2939.030695725311	1974
4	7900	2939.309499360476	1975
4	7904	2945.692901628095	1976
4	7908	2948.588523540837	1977
4	7912	2949.287134197721	1978
4	7916	2951.604388753853	1979
4	7920	2956.88903566454	1980
4	7924	2960.414779086324	1981
4	7928	2960.686796177302	1982
4	7932	2962.506737730475	1983
4	7936	2963.040624041958	1984
4	7940	2966.023049383602	1985
4	7944	2966.987571102279	1986
4	7948	2967.4742993553	1987
4	7952	2967.826266125653	1988
4	7956	2970.979836949937	1989
4	7960	2972.889697713187	1990
4	7964	2975.18539646621	1991
4	7968	2976.558790543009	1992
4	7972	2977.758539326323	1993
4	7976	2979.541091530173	1994
4	7980	2981.166888710077	1995
4	7986	2981.889504470236	1996
4	7988	2981.979561213878	1997
4	7992	2982.205760221394	1998
4	7996	2989.111203217054	1999
4	8000	2990.609729565616	2000
4	8004	2991.73552319746	2001
4	8008	2992.446281626479	2002
4	8012	2995.700318587182	2003
4	8016	2997.231656965382	2004
4	8020	3001.634962588095	2005
4	8024	3002.316393266863	2006
4	8028	3003.259081417033	2007
4	8032	3005.418314299734	2008
4	8038	3007.298433112953	2009
4	8040	3007.333227348101	2010
4	8044	3008.374856139439	2011
4	8048	3008.548307662175	2012
4	8052	3009.245703562382	2013
4	8056	3010.71850373674	2014
4	8060	3013.566537641689	2015
4	8064	3015.190071791182	2016
4	8068	3015.985507622957	2017
4	8074	3017.640346972364	2018
4	8076	3017.887554882544	2019
4	8080	3020.766566510317	2020
4	8084	3021.348272583532	2021
4	8088	3027.874822738735	2022
4	8094	3028.506226717947	2023
4	8098	3029.439196870351	2024
4	8100	3029.455970797012	2025
4	8104	3033.520282631178	2026
4	8110	3038.576790281562	2027
4	8112	3038.747106620649	2028
4	8116	3040.385826317049	2029
4	8120	3041.512207998874	2030
4	8124	3048.082749937919	2031
4	8130	3049.629822587262	2032
4	8132	3049.660855184059	2033
4	8136	3052.060951152459	2034
4	8140	3056.53092104177	2035
4	8144	3059.252105469561	2036
4	8150	3059.989446907647	2037
4	8152	3059.9963222695	2038
4	8156	3061.275966069089	2039
4	8160	3063.54979636834	2040
4	8164	3066.129874871179	2041
4	8168	3067.493199047719	2042
4	8172	3069.28105742472	2043
4	8176	3073.989097151892	2044
4	8180	3076.221245623236	2045
4	8184	3076.429352463905	2046
4	8188	3076.820670070757	2047
4	8192	3079.06217791836	2048
4	8196	3079.556418225892	2049
4	8202	3086.023772711783	2050
4	8204	3086.214528455101	2051
4	8208	3092.234494551441	2052
4	8212	3094.276350334831	2053
4	8216	3095.84653535208	2054
4	8220	3096.352199003711	2055
4	8224	3097.039472156088	2056
4	8228	3098.774350856209	2057
4	8232	3099.42625936229	2058
4	8236	3101.457833034479	2059
4	8240	3103.082536264376	2060
4	8244	3106.44987691062	2061
4	8250	3107.938790393107	2062
4	8252	3107.946493897098	2063
4	8256	3109.136113086045	2064
4	8260	3110.980610107788	2065
4	8266	3113.127028567572	2066
4	8268	3113.511654615117	2067
4	8272	3114.283033243513	2068
4	8276	3115.357890304403	2069
4	8280	3115.815740297098	2070
4	8284	3116.965141140109	2071
4	8288	3122.414666682912	2072
4	8292	3122.950492968404	2073
4	8296	3127.190166528455	2074
4	8300	3133.724407256823	2075
4	8304	3136.599172308752	2076
4	8308	3141.493588856272	2077
4	8312	3142.994212969389	2078
4	8316	3143.506619055082	2079
4	8320	3145.587456799569	2080
4	8324	3146.757312430595	2081
4	8328	3147.639299949712	2082
4	8332	3151.062014858968	2083
4	8336	3151.747948720429	2084
4	8346	3154.140695794972	2085
4	8348	3154.194316924092	2086
4	8350	3154.202202022537	2087
4	8352	3154.81541928952	2088
4	8356	3155.445200563208	2089
4	8360	3156.025157411313	2090
4	8364	3156.29319386477	2091
4	8368	3158.573669772657	2092
4	8372	3163.722177261739	2093
4	8376	3165.743328503396	2094
4	8380	3166.152608444419	2095
4	8384	3167.414007739245	2096
4	8388	3169.20450787909	2097
4	8394	3171.414696849219	2098
4	8396	3171.451208297928	2099
4	8400	3172.12726573154	2100
4	8404	3173.937598876252	2101
4	8408	3174.115282392366	2102
4	8412	3175.72009891615	2103
4	8416	3176.23363834054	2104
4	8420	3177.160756158006	2105
4	8424	3178.591131702779	2106
4	8430	3181.636372054709	2107
4	8432	3181.83568353738	2108
4	8436	3182.305474148871	2109
4	8440	3182.992665923353	2110
4	8444	3183.437866782799	2111
4	8448	3185.963084985118	2112
4	8452	3186.219144438782	2113
4	8456	3187.247034436906	2114
4	8460	3187.36291541135	2115
4	8464	3188.592699064402	2116
4	8468	3189.545611412127	2117
4	8472	3190.36838336339	2118
4	8476	3190.595150104626	2119
4	8480	3197.599791296602	2120
4	8484	3200.435774550132	2121
4	8488	3202.54568695422	2122
4	8492	3204.425080791975	2123
4	8496	3204.53653413888	2124
4	8500	3204.84947921686	2125
4	8504	3205.303967924915	2126
4	8508	3205.713544126727	2127
4	8512	3209.101336446893	2128
4	8516	3209.611617708624	2129
4	8520	3210.15513784001	2130
4	8524	3210.301653957929	2131
4	8528	3210.964461787872	2132
4	8532	3214.602255634236	2133
4	8538	3218.475906184669	2134
4	8542	3218.842652087017	2135
4	8544	3219.114066650682	2136
4	8550	3220.731315841465	2137
4	8552	3220.751222694491	2138
4	8556	3221.2551954418	2139
4	8562	3225.496574105716	2140
4	8564	3226.046748854286	2141
4	8568	3227.160632887163	2142
4	8572	3227.861279859312	2143
4	8576	3229.101475796286	2144
4	8580	3231.582401324062	2145
4	8584	3231.973217353135	2146
4	8588	3233.576492780713	2147
4	8592	3235.439231264515	2148
4	8596	3235.783778898877	2149
4	8602	3237.75778743175	2150
4	8604	3238.02469602901	2151
4	8608	3238.676162510008	2152
4	8612	3239.842681549961	2153
4	8616	3241.185953465732	2154
4	8620	3242.470226516103	2155
4	8624	3243.679451014887	2156
4	8628	3245.563663236122	2157
4	8632	3246.107438961957	2158
4	8636	3250.152538983599	2159
4	8640	3252.041106285965	2160
4	8644	3253.399653677595	2161
4	8648	3253.582166904759	2162
4	8652	3256.862892071284	2163
4	8658	3258.206542473423	2164
4	8660	3258.35509311272	2165
4	8664	3263.653365792173	2166
4	8668	3266.271829068038	2167
4	8672	3266.967014286224	2168
4	8676	3267.898560318137	2169
4	8682	3274.281913368277	2170
4	8686	3274.503615252789	2171
4	8688	3274.677702575152	2172
4	8694	3275.421048050117	2173
4	8696	3275.429319684594	2174
4	8700	3277.102588604828	2175
4	8706	3280.217612636132	2176
4	8708	3280.484725810437	2177
4	8712	3280.923521125363	2178
4	8718	3281.906709370333	2179
4	8720	3282.012874489406	2180
4	8724	3282.212308589451	2181
4	8728	3283.861245751422	2182
4	8732	3284.430177991047	2183
4	8736	3287.515371983624	2184
4	8740	3289.166799942035	2185
4	8744	3293.588703333218	2186
4	8748	3293.951416386137	2187
4	8752	3294.565470384684	2188
4	8756	3294.987688007208	2189
4	8760	3295.923340690893	2190
4	8764	3296.260460093441	2191
4	8768	3298.404267388461	2192
4	8776	3300.671448135071	2193
4	8778	3301.059155616313	2194
4	8780	3301.357355896139	2195
4	8784	3302.979474458139	2196
4	8788	3304.822383195653	2197
4	8792	3309.990830783064	2198
4	8796	3312.326767660043	2199
4	8800	3313.445265193108	2200
4	8804	3313.821857998928	2201
4	8808	3317.360189597476	2202
4	8812	3318.799549182746	2203
4	8816	3322.089430087755	2204
4	8820	3323.38898598625	2205
4	8824	3324.874671492981	2206
4	8828	3334.254938059606	2207
4	8832	3334.739535861275	2208
4	8836	3335.031152572296	2209
4	8840	3335.101950562153	2210
4	8844	3337.141837228171	2211
4	8850	3338.762816357588	2212
4	8852	3339.138384770817	2213
4	8856	3340.207695059952	2214
4	8860	3347.008363770441	2215
4	8864	3349.456426080502	2216
4	8868	3353.321092753193	2217
4	8872	3354.320115059472	2218
4	8876	3356.356651210069	2219
4	8882	3359.203682004263	2220
4	8884	3359.545678117572	2221
4	8888	3362.171647251189	2222
4	8892	3363.373679425415	2223
4	8898	3364.096494364738	2224
4	8900	3364.519601898681	2225
4	8904	3365.097590938143	2226
4	8908	3367.36788694579	2227
4	8912	3367.705514028677	2228
4	8916	3369.937559051912	2229
4	8920	3370.127264971209	2230
4	8924	3370.700984443991	2231
4	8928	3372.807431747389	2232
4	8934	3373.278876560634	2233
4	8936	3373.307609733908	2234
4	8944	3374.08860807395	2235
4	8946	3374.293402159803	2236
4	8948	3374.468879266144	2237
4	8952	3375.516485536425	2238
4	8956	3379.331532597194	2239
4	8960	3381.011012382731	2240
4	8964	3384.425078737267	2241
4	8968	3385.485876481432	2242
4	8972	3390.700974431464	2243
4	8976	3391.661903412148	2244
4	8980	3392.40874549874	2245
4	8984	3393.268920802072	2246
4	8988	3394.262464332225	2247
4	8992	3394.954473274564	2248
4	8996	3403.107320315314	2249
4	9000	3405.0182510713	2250
4	9004	3405.045009467908	2251
4	9008	3406.009681786844	2252
4	9012	3410.562329230811	2253
4	9016	3413.922840458617	2254
4	9020	3418.232284861317	2255
4	9024	3421.281150724916	2256
4	9028	3421.992783671221	2257
4	9032	3422.20623907845	2258
4	9036	3423.347986854277	2259
4	9042	3428.849991527068	2260
4	9044	3429.313624463433	2261
4	9048	3430.591649610391	2262
4	9052	3431.319437406843	2263
4	9056	3433.763361527152	2264
4	9060	3433.947896395803	2265
4	9064	3435.164665649758	2266
4	9068	3440.941384409887	2267
4	9076	3442.768273672001	2268
4	9080	3443.162712889915	2269
4	9082	3443.347242666169	2270
4	9086	3443.572703464147	2271
4	9088	3443.81932374279	2272
4	9092	3447.302846396067	2273
4	9096	3453.508284898181	2274
4	9100	3455.068452685231	2275
4	9106	3456.096562415125	2276
4	9108	3456.145145403889	2277
4	9112	3457.235792887897	2278
4	9116	3463.279496807815	2279
4	9120	3465.414521851049	2280
4	9124	3465.757875343969	2281
4	9128	3469.307248038581	2282
4	9132	3469.62323800235	2283
4	9136	3471.807558743031	2284
4	9142	3472.439100925945	2285
4	9144	3472.673194828608	2286
4	9148	3475.233567148037	2287
4	9152	3476.173758928772	2288
4	9156	3481.092637569869	2289
4	9162	3481.380340671559	2290
4	9164	3481.424404390437	2291
4	9168	3482.551676606706	2292
4	9172	3483.564130335605	2293
4	9176	3485.729834904542	2294
4	9180	3487.968031955598	2295
4	9184	3489.82527588946	2296
4	9188	3497.932023701473	2297
4	9192	3499.369787804622	2298
4	9196	3503.648017163014	2299
4	9200	3503.984287096527	2300
4	9204	3510.024885873674	2301
4	9208	3511.835009109313	2302
4	9212	3512.361125388802	2303
4	9216	3512.847283629975	2304
4	9222	3514.071246958156	2305
4	9224	3514.269471861262	2306
4	9232	3515.760204324624	2307
4	9234	3515.954464820467	2308
4	9236	3516.155942460999	2309
4	9240	3519.498016526775	2310
4	9244	3519.842991736797	2311
4	9248	3523.482131528234	2312
4	9256	3524.625861460301	2313
4	9258	3525.035802057435	2314
4	9262	3526.248608724146	2315
4	9264	3526.254872244617	2316
4	9268	3527.480403607016	2317
4	9272	3529.862599204709	2318
4	9276	3538.233847137693	2319
4	9280	3538.735176315753	2320
4	9284	3542.125645303522	2321
4	9288	3543.860750115588	2322
4	9292	3545.02515690341	2323
4	9298	3545.650770914231	2324
4	9300	3545.65113031695	2325
4	9304	3545.906014525587	2326
4	9310	3546.603533321615	2327
4	9312	3547.144658183096	2328
4	9316	3550.215107350569	2329
4	9322	3552.256914213788	2330
4	9326	3553.015558437125	2331
4	9328	3553.292923248895	2332
4	9332	3553.687147301326	2333
4	9336	3556.630940563116	2334
4	9340	3556.818592103201	2335
4	9344	3557.892482228432	2336
4	9348	3560.317515513701	2337
4	9352	3561.715535839948	2338
4	9356	3562.281373516359	2339
4	9360	3564.404023203071	2340
4	9366	3565.065346772922	2341
4	9368	3565.213735793481	2342
4	9372	3566.332268898431	2343
4	9376	3566.586297072074	2344
4	9380	3566.892401080085	2345
4	9384	3571.905289024251	2346
4	9390	3575.35819802619	2347
4	9392	3575.837489940895	2348
4	9396	3577.234640650989	2349
4	9400	3577.399758859806	2350
4	9404	3578.106834132709	2351
4	9408	3580.368841548622	2352
4	9412	3580.82592016286	2353
4	9418	3581.082046373731	2354
4	9420	3581.209643999957	2355
4	9424	3581.813792971329	2356
4	9428	3584.390576687848	2357
4	9432	3590.829842470383	2358
4	9436	3592.034213861284	2359
4	9440	3595.33159761433	2360
4	9444	3596.792941383358	2361
4	9448	3597.274040422312	2362
4	9452	3599.970441003875	2363

