version 2
run Net1-0-20241214-14:26:32-3152
attr configname Net1
attr datetime 20241214-14:26:32
attr experiment Net1
attr inifile omnetpp.ini
attr iterationvars ""
attr iterationvarsf ""
attr measurement ""
attr network Net
attr processid 3152
attr repetition 0
attr replication #0
attr resultdir results
attr runnumber 0
attr seedset 4
param **.source*.avgInterArrivalTime 0.6s
param **.queue*.avgServiceTime 0.1s
param **.queue*.LCFS false

vector 0 Net.queue1 qlen:vector ETV
attr interpolationmode sample-hold
attr title "queue length, vector"
vector 1 Net.queue1 queueingTime:vector ETV
attr interpolationmode none
attr title "queueing time at dequeue, vector"
attr unit s
vector 2 Net.queue1 responseTime:vector ETV
attr interpolationmode none
attr title "response time at end of service, vector"
attr unit s
vector 3 Net.sink1 lifetime:vector ETV
attr interpolationmode none
attr title "lifetime of arrived msg, vector"
attr unit s
vector 4 Net.sink1 arrivedMsg:vector ETV
attr interpolationmode none
attr title "number of arrived msg, vector"
0	0	0	0
0	25	5.016843323529	1
0	27	5.169396286832	2
0	29	5.173146134448	3
0	30	5.299447498366	2
0	32	5.299447498366	3
0	33	5.328614146468	2
0	35	5.328614146468	3
0	36	5.385670210632	2
0	39	5.536802888323	1
0	41	5.536802888323	2
0	42	5.558828295279	1
0	45	5.757600792931	0
0	72	9.245693809812	1
0	73	9.321853304144	0
0	75	9.321853304144	1
0	76	9.488486995478	0
0	78	9.488486995478	1
0	79	9.490407799484	0
0	101	12.209601207322	1
0	102	12.26063539322	0
0	104	12.26063539322	1
0	105	12.279024333797	0
0	107	12.279024333797	1
0	109	12.325651022804	2
0	110	12.411217481369	1
0	114	12.640650232804	2
0	115	12.670448618805	1
0	118	12.874706730233	0
0	120	12.874706730233	1
0	122	13.091000118532	2
0	123	13.152080204012	1
0	126	13.182322161658	0
0	185	16.568453391609	1
0	186	16.597263941347	0
0	193	16.743394849192	1
0	194	16.960410368285	0
0	201	17.013848331897	1
0	203	17.141353321369	2
0	204	17.153898157758	1
0	208	17.22228298618	2
0	209	17.222772670303	1
0	211	17.222772670303	2
0	212	17.242916429382	1
0	214	17.242916429382	2
0	216	17.269518275481	3
0	217	17.493488247788	2
0	219	17.493488247788	3
0	220	17.531420259635	2
0	224	17.608710671187	3
0	225	17.740387288018	2
0	228	17.86017496526	1
0	230	17.86017496526	2
0	232	17.932221354826	3
0	233	18.095213509528	2
0	237	18.243561448637	3
0	238	18.330156122196	2
0	240	18.330156122196	3
0	241	18.377383858722	2
0	245	18.484900707249	3
0	246	18.564934237306	2
0	248	18.564934237306	3
0	249	18.697150258827	2
0	251	18.697150258827	3
0	252	18.817208456779	2
0	255	18.927926306445	1
0	258	18.936772452389	0
0	267	19.632623765726	1
0	268	19.63338248659	0
0	272	19.69264730329	1
0	273	19.76528099932	0
0	275	19.76528099932	1
0	276	19.929796081945	0
0	278	19.929796081945	1
0	279	19.94037441211	0
0	288	21.083303716737	1
0	289	21.33108726609	0
0	312	23.364142410663	1
0	313	23.367637023688	0
0	357	28.949564945547	1
0	358	29.180916312473	0
0	370	30.280218638801	1
0	371	30.497713007837	0
0	373	30.497713007837	1
0	374	30.536369833235	0
0	376	30.536369833235	1
0	378	30.664120487948	2
0	379	30.753347685843	1
0	382	30.810753747932	0
0	412	33.939202999621	1
0	413	34.163769618471	0
0	415	34.163769618471	1
0	416	34.233615358513	0
0	418	34.233615358513	1
0	419	34.371247707509	0
0	441	35.439374814676	1
0	442	35.536785701423	0
0	459	38.172492845233	1
0	461	38.302867802347	2
0	462	38.401559445485	1
0	464	38.401559445485	2
0	465	38.483991800691	1
0	467	38.483991800691	2
0	468	38.485039941742	1
0	470	38.485039941742	2
0	471	38.511163029443	1
0	474	38.514918840955	0
0	478	38.678710343193	1
0	480	38.731604234746	2
0	482	38.756154385142	3
0	483	38.877145639725	2
0	486	38.878755658853	1
0	488	38.878755658853	2
0	489	38.966352992901	1
0	492	39.096131179441	0
0	494	39.096131179441	1
0	495	39.330864974164	0
0	517	40.302990529915	1
0	518	40.515064768238	0
0	520	40.515064768238	1
0	521	40.645359195928	0
0	523	40.645359195928	1
0	524	40.645993598021	0
0	599	49.0921823162	1
0	600	49.210859108124	0
0	615	50.268548980349	1
0	617	50.542290971095	2
0	618	50.651417146346	1
0	622	50.751712822073	2
0	623	50.834967008777	1
0	626	50.874764651899	0
0	628	50.874764651899	1
0	629	50.913710292306	0
0	631	50.913710292306	1
0	632	51.187495567855	0
0	636	51.413487906888	1
0	637	51.440052621623	0
0	662	54.088213388037	1
0	663	54.137249671724	0
0	670	54.399945109583	1
0	672	54.409917700365	2
0	674	54.508761550198	3
0	675	54.550456683277	2
0	678	54.57550570748	1
0	680	54.57550570748	2
0	682	54.73433442524	3
0	683	55.037198815875	2
0	686	55.066878487346	1
0	689	55.104304937357	0
0	706	56.439490377969	1
0	707	56.678113015509	0
0	766	64.84755486589	1
0	768	65.004955260409	2
0	770	65.031905046877	3
0	772	65.064220816014	4
0	773	65.095776938342	3
0	777	65.265709746298	4
0	778	65.29147869401	3
0	780	65.29147869401	4
0	781	65.353626438363	3
0	784	65.408928839351	2
0	788	65.514314794507	3
0	789	65.54984391395	2
0	791	65.54984391395	3
0	792	65.610897320148	2
0	794	65.610897320148	3
0	795	65.637648284435	2
0	799	65.688124010022	3
0	800	65.720465563073	2
0	803	65.743126148299	1
0	806	65.814744658222	0
0	882	72.897030780581	1
0	883	73.084381575758	0
0	916	75.429196897266	1
0	917	75.445926310152	0
0	919	75.445926310152	1
0	920	75.466201594803	0
0	922	75.466201594803	1
0	923	75.669783048119	0
0	956	79.386239935054	1
0	957	79.417446338345	0
0	961	79.443271274992	1
0	962	79.505219624166	0
0	964	79.505219624166	1
0	965	79.506988544502	0
0	1003	81.680686067931	1
0	1004	81.777339239998	0
0	1008	81.809728029663	1
0	1010	81.822664395123	2
0	1011	81.908352356151	1
0	1013	81.908352356151	2
0	1014	81.996040098019	1
0	1016	81.996040098019	2
0	1017	82.054983167496	1
0	1020	82.239535055291	0
0	1057	85.889747346164	1
0	1058	85.902640784703	0
0	1089	88.685263285592	1
0	1090	88.72105579623	0
0	1118	90.872071968157	1
0	1119	90.978801714377	0
0	1136	91.750757378811	1
0	1137	91.841949296077	0
0	1139	91.841949296077	1
0	1140	91.90973888902	0
0	1144	92.020390758287	1
0	1145	92.303153161385	0
0	1204	97.033755973611	1
0	1205	97.045348509594	0
0	1207	97.045348509594	1
0	1208	97.286986949509	0
0	1262	103.875757670294	1
0	1263	104.015082019918	0
0	1327	109.30037855309	1
0	1328	109.421355886963	0
0	1330	109.421355886963	1
0	1331	109.437340726048	0
0	1333	109.437340726048	1
0	1334	109.443701724291	0
0	1377	116.055385523738	1
0	1378	116.126959095506	0
0	1380	116.126959095506	1
0	1381	116.318809414656	0
0	1383	116.318809414656	1
0	1384	116.387731486401	0
0	1401	117.65631068839	1
0	1402	117.696162369441	0
0	1488	125.289252760295	1
0	1489	125.299232231237	0
0	1543	129.286153486487	1
0	1545	129.298312814672	2
0	1546	129.536200429022	1
0	1549	129.631943474489	0
0	1556	129.684843683949	1
0	1557	129.715159713035	0
0	1585	131.642928407197	1
0	1587	131.720263718094	2
0	1589	131.755866512028	3
0	1590	131.764975001997	2
0	1593	131.871541430422	1
0	1595	131.871541430422	2
0	1596	131.949118610176	1
0	1598	131.949118610176	2
0	1599	132.007006608676	1
0	1601	132.007006608676	2
0	1602	132.03317765961	1
0	1605	132.218770259602	0
0	1622	132.934093186274	1
0	1623	133.263940096644	0
0	1625	133.263940096644	1
0	1626	133.430107302511	0
0	1653	134.319704484238	1
0	1654	134.590314277622	0
0	1658	134.71679593304	1
0	1659	134.770616087632	0
0	1661	134.770616087632	1
0	1663	134.875467755166	2
0	1664	134.99507196834	1
0	1667	135.13271503666	0
0	1726	140.462807267153	1
0	1727	140.76168692786	0
0	1729	140.76168692786	1
0	1730	141.015021221223	0
0	1732	141.015021221223	1
0	1733	141.043970220664	0
0	1758	141.951857383097	1
0	1759	142.00943781603	0
0	1792	146.145633032738	1
0	1793	146.212967571966	0
0	1808	146.769057587756	1
0	1809	146.944492670103	0
0	1850	151.313591629152	1
0	1851	151.518415185357	0
0	1858	151.741317178293	1
0	1859	151.793551075554	0
0	1866	151.813994216945	1
0	1867	151.892393895724	0
0	1903	156.850974462651	1
0	1904	156.918205237588	0
0	1908	157.547138052296	1
0	1909	157.595494397257	0
0	1911	157.595494397257	1
0	1912	157.747671365519	0
0	1914	157.747671365519	1
0	1915	158.101877879313	0
0	1955	163.53089199261	1
0	1956	163.578776116906	0
0	1958	163.578776116906	1
0	1959	163.666841289936	0
0	1961	163.666841289936	1
0	1962	163.670960797275	0
0	2005	167.420694177966	1
0	2006	167.490304838152	0
0	2042	170.231870878603	1
0	2043	170.258570505916	0
0	2068	172.816456551307	1
0	2070	172.817000803148	2
0	2072	172.963269870995	3
0	2073	173.233571033029	2
0	2075	173.233571033029	3
0	2076	173.282591431453	2
0	2078	173.282591431453	3
0	2079	173.468849886227	2
0	2082	173.502560953242	1
0	2085	173.543772310248	0
0	2126	180.094701266239	1
0	2127	180.116792797492	0
0	2129	180.116792797492	1
0	2131	180.143368391624	2
0	2132	180.161820614639	1
0	2134	180.161820614639	2
0	2135	180.167889627031	1
0	2138	180.179319777875	0
0	2140	180.179319777875	1
0	2142	180.393403132177	2
0	2143	180.403138150652	1
0	2146	180.681206775797	0
0	2155	182.33941813208	1
0	2156	182.345754126003	0
0	2160	182.503089993918	1
0	2161	182.813182754479	0
0	2163	182.813182754479	1
0	2164	182.85303762946	0
0	2166	182.85303762946	1
0	2167	182.918533208867	0
0	2241	192.769524348843	1
0	2242	192.796462469085	0
0	2244	192.796462469085	1
0	2245	192.872838772122	0
0	2275	194.850475287002	1
0	2276	195.198241057243	0
0	2278	195.198241057243	1
0	2279	195.202443456984	0
0	2291	196.069734825867	1
0	2292	196.181809713516	0
0	2296	196.249028187527	1
0	2297	196.272263516918	0
0	2299	196.272263516918	1
0	2300	196.429528061545	0
0	2302	196.429528061545	1
0	2303	196.576804951097	0
0	2315	197.158193849724	1
0	2317	197.209536568235	2
0	2318	197.226534856714	1
0	2321	197.228753491542	0
0	2323	197.228753491542	1
0	2325	197.361015391456	2
0	2326	197.388627245601	1
0	2329	197.427667969748	0
0	2341	197.596840517871	1
0	2342	197.636374927972	0
0	2354	198.231898054743	1
0	2355	198.280283045199	0
0	2357	198.280283045199	1
0	2358	198.286896764984	0
0	2375	198.916358713427	1
0	2377	198.925102451955	2
0	2378	198.944689419056	1
0	2380	198.944689419056	2
0	2381	198.990652566505	1
0	2384	199.117825898776	0
0	2396	199.482024952924	1
0	2397	199.483937904638	0
0	2412	200.21241629358	1
0	2413	200.39961942795	0
0	2417	200.657064043122	1
0	2418	200.903043344186	0
0	2422	200.936812414751	1
0	2423	200.937566666203	0
0	2425	200.937566666203	1
0	2427	201.037560769791	2
0	2428	201.163083027868	1
0	2430	201.163083027868	2
0	2431	201.164553077013	1
0	2434	201.177961843117	0
0	2469	203.45540221877	1
0	2470	203.462282954912	0
0	2608	218.592558864314	1
0	2609	218.600579939572	0
0	2655	222.688365717679	1
0	2656	222.748755058151	0
0	2658	222.748755058151	1
0	2659	222.755386837576	0
0	2661	222.755386837576	1
0	2662	222.769220389861	0
0	2674	223.599168534705	1
0	2675	223.601980918752	0
0	2721	229.765875055449	1
0	2722	229.78028652834	0
0	2750	230.673417254424	1
0	2751	230.694683680075	0
0	2753	230.694683680075	1
0	2754	230.744776053221	0
0	2768	232.839813541252	1
0	2769	233.003817693639	0
0	2771	233.003817693639	1
0	2772	233.077048262096	0
0	2774	233.077048262096	1
0	2775	233.157221779832	0
0	2818	237.737872473762	1
0	2819	237.761450477163	0
0	2836	239.8047198681	1
0	2837	239.878709550743	0
0	2839	239.878709550743	1
0	2840	239.923197868117	0
0	2842	239.923197868117	1
0	2843	239.980958577513	0
0	2852	242.087583758872	1
0	2853	242.289019026219	0
0	2855	242.289019026219	1
0	2856	242.301997492176	0
0	2858	242.301997492176	1
0	2860	242.433556386513	2
0	2861	242.626224464363	1
0	2864	242.676100277398	0
0	2892	244.729231373267	1
0	2893	244.750069821728	0
0	2902	245.124726773127	1
0	2903	245.218414604737	0
0	2905	245.218414604737	1
0	2906	245.285036562421	0
0	2908	245.285036562421	1
0	2909	245.451483230411	0
0	2913	245.580843810859	1
0	2915	245.883587592215	2
0	2916	246.013105456593	1
0	2919	246.015476428024	0
0	2926	246.205088992963	1
0	2927	246.266160541833	0
0	3038	261.917786102688	1
0	3039	262.024327458768	0
0	3041	262.024327458768	1
0	3042	262.103023401946	0
0	3072	265.129218515645	1
0	3073	265.184993564827	0
0	3075	265.184993564827	1
0	3077	265.349261534727	2
0	3078	265.370854687573	1
0	3082	265.579948798097	2
0	3083	265.658805368773	1
0	3086	265.846830335351	0
0	3090	265.897501940843	1
0	3091	265.996129231177	0
0	3132	268.743620115186	1
0	3133	268.798283669525	0
0	3135	268.798283669525	1
0	3136	268.918441645003	0
0	3138	268.918441645003	1
0	3139	269.079352360464	0
0	3195	274.918974416343	1
0	3196	275.147808971005	0
0	3284	284.230968326515	1
0	3286	284.256510225697	2
0	3287	284.363579484027	1
0	3290	284.491075267715	0
0	3292	284.491075267715	1
0	3293	284.524227122393	0
0	3295	284.524227122393	1
0	3296	284.550564723368	0
0	3313	287.298945504884	1
0	3314	287.315536307054	0
0	3352	289.978837419082	1
0	3353	290.025011310873	0
0	3391	292.161060593361	1
0	3392	292.287174656026	0
0	3441	296.354723916385	1
0	3442	296.455579488455	0
0	3494	302.359070447474	1
0	3495	302.448239490208	0
0	3546	308.472156553616	1
0	3547	308.474795372827	0
0	3549	308.474795372827	1
0	3550	308.53411214307	0
0	3569	312.423080512715	1
0	3570	312.57461158228	0
0	3574	312.593867864278	1
0	3575	312.609462410229	0
0	3577	312.609462410229	1
0	3578	312.706760849364	0
0	3580	312.706760849364	1
0	3581	312.752491029921	0
0	3717	324.791128661582	1
0	3719	324.828164890776	2
0	3721	324.944779655758	3
0	3722	325.053760524842	2
0	3725	325.055040971456	1
0	3727	325.055040971456	2
0	3728	325.148841050454	1
0	3730	325.148841050454	2
0	3731	325.168859794237	1
0	3734	325.198775642173	0
0	3743	326.695556985904	1
0	3744	326.770556057844	0
0	3746	326.770556057844	1
0	3747	326.803938274251	0
0	3749	326.803938274251	1
0	3751	326.958385986692	2
0	3752	327.09208970246	1
0	3755	327.153826011152	0
0	3759	327.154248953138	1
0	3760	327.352923689821	0
0	3777	329.606115341088	1
0	3779	329.807321090659	2
0	3780	330.048039025191	1
0	3782	330.048039025191	2
0	3784	330.132926127696	3
0	3785	330.142384475885	2
0	3787	330.142384475885	3
0	3788	330.185200596002	2
0	3792	330.212350999586	3
0	3793	330.370300235239	2
0	3796	330.509566937252	1
0	3799	330.582963816638	0
0	3803	330.616013908251	1
0	3804	330.786371143448	0
0	3806	330.786371143448	1
0	3807	330.810596714975	0
0	3809	330.810596714975	1
0	3811	330.829525486251	2
0	3812	330.864954283066	1
0	3815	331.170702216165	0
0	3860	335.747038541774	1
0	3861	335.90347924732	0
0	3863	335.90347924732	1
0	3864	335.975803659705	0
0	3873	337.872103278775	1
0	3874	337.879626485558	0
0	3876	337.879626485558	1
0	3877	337.90991573978	0
0	3879	337.90991573978	1
0	3880	337.928603227366	0
0	3899	341.895734682277	1
0	3900	341.93634916229	0
0	3902	341.93634916229	1
0	3903	342.210413778696	0
0	3905	342.210413778696	1
0	3906	342.307379375185	0
0	3960	347.20558878356	1
0	3961	347.28861352868	0
0	3963	347.28861352868	1
0	3965	347.295678174795	2
0	3966	347.35406412983	1
0	3969	347.631996350425	0
0	4005	349.903851978188	1
0	4006	349.909907199697	0
0	4018	350.918242767643	1
0	4019	350.920097511106	0
0	4021	350.920097511106	1
0	4022	350.927200636816	0
0	4047	354.345636177755	1
0	4048	354.40323965682	0
0	4050	354.40323965682	1
0	4051	354.417823069582	0
0	4053	354.417823069582	1
0	4054	354.437926744171	0
0	4058	354.669339146451	1
0	4059	354.748260096282	0
0	4079	356.937708630556	1
0	4080	357.061480843562	0
0	4084	357.210611447354	1
0	4085	357.236019373866	0
0	4150	363.672682184316	1
0	4151	363.672739595946	0
0	4155	363.716094919144	1
0	4156	364.021330956817	0
0	4210	369.698692952296	1
0	4211	369.761711113404	0
0	4213	369.761711113404	1
0	4214	369.792571797558	0
0	4216	369.792571797558	1
0	4217	369.846048429396	0
0	4239	372.126167704366	1
0	4240	372.143132167645	0
0	4242	372.143132167645	1
0	4244	372.234238184253	2
0	4245	372.47028120032	1
0	4247	372.47028120032	2
0	4248	372.65422419093	1
0	4251	372.94322301774	0
0	4253	372.94322301774	1
0	4254	372.997554894964	0
0	4263	373.929918361283	1
0	4264	374.062630767009	0
0	4266	374.062630767009	1
0	4267	374.11418801565	0
0	4269	374.11418801565	1
0	4270	374.121267964539	0
0	4308	376.921866910583	1
0	4309	377.068785021552	0
0	4311	377.068785021552	1
0	4312	377.113904238855	0
0	4314	377.113904238855	1
0	4315	377.226220159875	0
0	4319	377.288498308646	1
0	4320	377.331060563814	0
0	4340	379.072790279413	1
0	4341	379.13488077339	0
0	4343	379.13488077339	1
0	4344	379.558167299714	0
0	4379	384.652610861945	1
0	4380	384.762052687638	0
0	4392	385.401617578194	1
0	4393	385.504735456163	0
0	4395	385.504735456163	1
0	4396	385.574204177034	0
0	4398	385.574204177034	1
0	4399	385.607822909106	0
0	4427	389.734833174056	1
0	4428	389.789121462418	0
0	4432	389.900332055851	1
0	4433	390.322582995536	0
0	4435	390.322582995536	1
0	4436	390.439843375058	0
0	4495	397.261869114737	1
0	4497	397.434408493711	2
0	4498	397.449274531187	1
0	4501	397.634382195281	0
0	4505	397.65631043625	1
0	4506	397.878421138979	0
0	4573	406.623699349393	1
0	4574	406.647228497372	0
0	4576	406.647228497372	1
0	4577	406.701067725968	0
0	4591	407.181495437259	1
0	4593	407.203641396266	2
0	4594	407.262750020041	1
0	4596	407.262750020041	2
0	4597	407.346776535641	1
0	4600	407.630753395621	0
0	4602	407.630753395621	1
0	4603	407.969823136403	0
0	4615	410.274490921723	1
0	4616	410.275922424186	0
0	4636	412.680883428093	1
0	4637	412.722765211382	0
0	4644	412.815149330504	1
0	4645	413.081012356753	0
0	4668	413.981148614969	1
0	4669	414.112575940619	0
0	4689	415.809238438893	1
0	4690	415.858848366742	0
0	4697	415.871063078438	1
0	4699	415.909636622372	2
0	4700	415.999012159224	1
0	4703	416.066795941615	0
0	4707	416.081276020124	1
0	4708	416.088442700613	0
0	4743	421.311744394129	1
0	4745	421.381839584038	2
0	4746	421.45433267408	1
0	4749	421.687456522457	0
0	4848	436.465377888257	1
0	4849	436.4842841708	0
0	4885	440.31366076703	1
0	4886	440.521570171899	0
0	4898	440.761411074702	1
0	4899	440.781416861825	0
0	4911	441.500713984342	1
0	4912	441.599404068229	0
0	5001	450.695777932837	1
0	5002	450.80437719886	0
0	5022	453.001980350225	1
0	5023	453.005399835821	0
0	5027	453.06211616334	1
0	5028	453.077230803847	0
0	5064	456.36264840527	1
0	5065	456.369686639466	0
0	5067	456.369686639466	1
0	5069	456.469677200705	2
0	5070	456.507005843199	1
0	5072	456.507005843199	2
0	5073	456.535933339711	1
0	5076	456.61162213422	0
0	5078	456.61162213422	1
0	5079	456.715438793541	0
0	5101	458.241502702892	1
0	5102	458.307804238965	0
0	5145	460.039005049106	1
0	5146	460.084605742177	0
0	5148	460.084605742177	1
0	5149	460.207569919246	0
0	5153	460.229686753569	1
0	5154	460.241636404097	0
0	5174	461.315960306063	1
0	5175	461.415542040309	0
0	5249	469.19988793572	1
0	5250	469.327321184736	0
0	5288	473.853602919687	1
0	5289	473.947502128407	0
0	5291	473.947502128407	1
0	5292	474.027330864598	0
0	5335	478.076117630166	1
0	5336	478.184856629653	0
0	5338	478.184856629653	1
0	5339	478.249533554015	0
0	5341	478.249533554015	1
0	5342	478.602267892576	0
0	5351	479.769902282285	1
0	5352	479.8563598026	0
0	5354	479.8563598026	1
0	5355	479.879630947113	0
0	5359	479.909297190061	1
0	5361	480.008619702226	2
0	5362	480.132499397387	1
0	5365	480.261477471035	0
0	5367	480.261477471035	1
0	5368	480.276177771369	0
0	5440	484.986725580472	1
0	5441	485.108734866845	0
0	5443	485.108734866845	1
0	5445	485.127993476889	2
0	5446	485.306610501275	1
0	5448	485.306610501275	2
0	5449	485.383480948236	1
0	5452	485.454150376704	0
0	5454	485.454150376704	1
0	5455	485.5100837652	0
0	5459	485.629630733793	1
0	5460	485.733267235447	0
0	5464	485.739977433555	1
0	5465	485.822286010132	0
0	5529	491.831342218932	1
0	5530	491.842313071277	0
0	5532	491.842313071277	1
0	5534	491.898963436085	2
0	5535	491.978064129369	1
0	5539	492.095431667181	2
0	5541	492.261995764113	3
0	5542	492.298598343249	2
0	5545	492.33482212997	1
0	5547	492.33482212997	2
0	5548	492.422560998121	1
0	5550	492.422560998121	2
0	5551	492.438230402495	1
0	5553	492.438230402495	2
0	5554	492.498004012233	1
0	5557	492.503182987438	0
0	5608	496.623083477286	1
0	5609	496.673692663483	0
0	5611	496.673692663483	1
0	5612	496.945253072843	0
0	5614	496.945253072843	1
0	5615	496.954478211712	0
0	5632	497.457110518062	1
0	5634	497.57500534576	2
0	5635	497.633786476911	1
0	5638	497.633886611796	0
0	5650	498.845218809553	1
0	5652	498.972102729951	2
0	5653	499.069483585353	1
0	5655	499.069483585353	2
0	5656	499.130636962051	1
0	5658	499.130636962051	2
0	5659	499.233579710988	1
0	5661	499.233579710988	2
0	5662	499.290315660031	1
0	5665	499.410953722731	0
0	5705	504.487236734405	1
0	5706	504.554744117817	0
0	5708	504.554744117817	1
0	5709	504.761704848485	0
0	5711	504.761704848485	1
0	5713	504.800325672858	2
0	5714	504.868705944571	1
0	5717	504.872574891991	0
0	5734	506.525336403486	1
0	5735	506.824690293457	0
0	5742	506.989170167994	1
0	5743	507.018773376093	0
0	5747	507.111327798895	1
0	5748	507.227323445615	0
0	5776	508.647866737688	1
0	5778	508.82677109485	2
0	5779	508.841149192634	1
0	5781	508.841149192634	2
0	5782	508.922369961516	1
0	5784	508.922369961516	2
0	5785	509.016883564949	1
0	5787	509.016883564949	2
0	5788	509.09441636206	1
0	5791	509.33326675464	0
0	5821	512.085278687377	1
0	5822	512.157843764091	0
0	5824	512.157843764091	1
0	5825	512.225170707714	0
0	5827	512.225170707714	1
0	5829	512.226979542506	2
0	5831	512.227504140564	3
0	5832	512.238816820217	2
0	5835	512.249404494718	1
0	5839	512.370063304101	2
0	5840	512.395190669842	1
0	5843	512.595791667556	0
0	5858	513.420722925031	1
0	5860	513.440834739634	2
0	5861	513.558582610019	1
0	5864	513.568196366909	0
0	5866	513.568196366909	1
0	5867	513.622701000337	0
0	5884	514.316265592829	1
0	5885	514.331396951321	0
0	5887	514.331396951321	1
0	5888	514.426277140388	0
0	5918	517.17911715386	1
0	5919	517.226444492921	0
0	5923	517.22994375622	1
0	5924	517.341437043571	0
0	5926	517.341437043571	1
0	5927	517.386277024642	0
0	5929	517.386277024642	1
0	5930	517.446485653995	0
0	5960	518.52161395077	1
0	5961	518.727711363769	0
0	6098	527.617528456019	1
0	6099	527.634090710268	0
0	6101	527.634090710268	1
0	6102	527.666998453721	0
0	6104	527.666998453721	1
0	6105	527.718495576221	0
0	6114	530.429177752258	1
0	6115	530.579989965207	0
0	6117	530.579989965207	1
0	6118	530.676049040409	0
0	6127	531.764907560961	1
0	6128	531.765399221399	0
0	6130	531.765399221399	1
0	6131	531.772648574554	0
0	6133	531.772648574554	1
0	6134	531.920170598789	0
0	6143	532.301285026891	1
0	6144	532.315919217308	0
0	6146	532.315919217308	1
0	6147	532.318860574905	0
0	6149	532.318860574905	1
0	6150	532.338327465821	0
0	6175	533.945465777506	1
0	6176	533.949653126865	0
0	6178	533.949653126865	1
0	6179	534.3321705365	0
0	6181	534.3321705365	1
0	6182	534.352900286388	0
0	6202	535.188027260836	1
0	6203	535.271752319701	0
0	6252	541.188253132176	1
0	6253	541.243564684985	0
0	6257	541.262507980844	1
0	6258	541.271071560145	0
0	6260	541.271071560145	1
0	6261	541.502599436951	0
0	6263	541.502599436951	1
0	6264	541.718407258551	0
0	6305	544.155428323267	1
0	6306	544.327385155799	0
0	6313	544.724670817187	1
0	6314	544.836018202958	0
0	6342	546.418230986471	1
0	6344	546.704675498872	2
0	6345	546.740385936434	1
0	6348	546.741427091234	0
0	6350	546.741427091234	1
0	6351	546.758436122466	0
0	6353	546.758436122466	1
0	6355	546.777644469478	2
0	6356	546.83209424257	1
0	6359	546.894750329044	0
0	6379	548.341350912645	1
0	6381	548.436654328052	2
0	6383	548.468607767953	3
0	6384	548.489764063986	2
0	6387	548.594117089865	1
0	6389	548.594117089865	2
0	6391	548.799924379154	3
0	6392	548.825345227665	2
0	6394	548.825345227665	3
0	6395	548.876234046009	2
0	6397	548.876234046009	3
0	6398	548.886617925757	2
0	6401	548.905138094718	1
0	6403	548.905138094718	2
0	6405	548.97527043872	3
0	6406	549.08502483945	2
0	6409	549.108545778805	1
0	6413	549.195715217092	2
0	6414	549.450405430083	1
0	6417	549.548134545865	0
0	6419	549.548134545865	1
0	6420	549.54933105923	0
0	6422	549.54933105923	1
0	6424	549.578025548186	2
0	6425	549.751070472937	1
0	6428	549.873069752416	0
0	6445	550.720007348807	1
0	6446	550.756843231447	0
0	6466	551.34882963504	1
0	6467	551.414803148858	0
0	6469	551.414803148858	1
0	6470	551.619818845667	0
0	6472	551.619818845667	1
0	6473	551.814749560647	0
0	6534	559.224962891174	1
0	6535	559.290009860967	0
0	6550	559.96079350156	1
0	6551	559.978741994894	0
0	6576	564.72682508963	1
0	6577	564.744340709217	0
0	6579	564.744340709217	1
0	6580	564.746715505668	0
0	6605	568.430977366581	1
0	6606	568.49150247477	0
0	6628	570.268115835455	1
0	6629	570.301571325189	0
0	6651	573.664622144711	1
0	6652	574.029720354034	0
0	6654	574.029720354034	1
0	6655	574.158519769732	0
0	6657	574.158519769732	1
0	6658	574.198193825035	0
0	6662	574.230009380146	1
0	6663	574.43018149554	0
0	6683	575.874934236271	1
0	6684	575.889809961342	0
0	6686	575.889809961342	1
0	6687	576.063477342092	0
0	6689	576.063477342092	1
0	6690	576.187321204849	0
0	6702	576.933747222459	1
0	6703	577.062709137431	0
0	6715	577.661756331721	1
0	6716	577.724854369894	0
0	6718	577.724854369894	1
0	6719	577.748952396178	0
0	6721	577.748952396178	1
0	6722	577.843243520528	0
0	6768	582.609742798581	1
0	6769	582.669838078325	0
0	6771	582.669838078325	1
0	6772	582.701512897046	0
0	6858	592.651220782241	1
0	6859	592.76259307408	0
0	6863	592.921194243547	1
0	6864	593.029788117781	0
0	6866	593.029788117781	1
0	6867	593.068271246126	0
0	6869	593.068271246126	1
0	6870	593.08510808032	0
0	6897	595.527386030116	1
0	6898	595.580787875673	0
0	6931	599.071923147771	1
0	6933	599.158615795462	2
0	6934	599.219146575534	1
0	6938	599.275252433933	2
0	6939	599.335948503555	1
0	6941	599.335948503555	2
0	6942	599.348215079173	1
0	6945	599.375777942525	0
0	6947	599.375777942525	1
0	6948	599.442913619572	0
0	6983	602.590118707335	1
0	6985	602.609468211447	2
0	6986	602.806783797256	1
0	6989	602.822741084113	0
0	6991	602.822741084113	1
0	6992	602.844143149756	0
0	6994	602.844143149756	1
0	6995	602.893224142577	0
0	7004	603.597741162969	1
0	7005	603.635182010537	0
0	7007	603.635182010537	1
0	7009	603.704861770723	2
0	7010	603.714541784942	1
0	7012	603.714541784942	2
0	7013	603.858286723544	1
0	7016	603.926989950817	0
0	7018	603.926989950817	1
0	7019	603.9679878522	0
0	7033	604.771390391968	1
0	7034	604.883953478879	0
0	7036	604.883953478879	1
0	7037	604.884484166917	0
0	7039	604.884484166917	1
0	7040	604.994575242805	0
0	7057	606.898478215328	1
0	7058	607.135953545517	0
0	7060	607.135953545517	1
0	7061	607.138114062037	0
0	7063	607.138114062037	1
0	7065	607.193434747429	2
0	7066	607.267675061129	1
0	7069	607.582036997722	0
0	7078	611.568979226132	1
0	7080	611.703612884448	2
0	7081	611.87737960843	1
0	7083	611.87737960843	2
0	7084	611.893688993095	1
0	7087	612.106362167279	0
0	7089	612.106362167279	1
0	7090	612.116046675117	0
0	7220	621.423157388297	1
0	7221	621.490493125478	0
0	7228	621.684191075152	1
0	7229	621.848751732938	0
0	7302	627.943745298342	1
0	7304	628.062871677378	2
0	7305	628.248932777966	1
0	7307	628.248932777966	2
0	7308	628.330556212723	1
0	7311	628.518922326155	0
0	7313	628.518922326155	1
0	7314	628.551205247379	0
0	7318	628.650117593055	1
0	7320	628.670313807791	2
0	7321	628.787695494561	1
0	7325	628.788222820101	2
0	7326	628.913161026968	1
0	7328	628.913161026968	2
0	7329	628.969029886859	1
0	7332	629.061444595064	0
0	7334	629.061444595064	1
0	7335	629.070877150666	0
0	7339	629.093400328981	1
0	7341	629.229607526124	2
0	7342	629.239397993404	1
0	7345	629.287890260429	0
0	7347	629.287890260429	1
0	7348	629.354380665523	0
0	7350	629.354380665523	1
0	7351	629.395809225985	0
0	7379	631.344232626839	1
0	7380	631.428583626052	0
0	7400	633.494532658019	1
0	7401	633.590423163477	0
0	7429	636.707279181032	1
0	7430	636.98485977446	0
0	7432	636.98485977446	1
0	7433	637.00302584406	0
0	7435	637.00302584406	1
0	7436	637.129440658595	0
0	7453	637.474499894668	1
0	7454	637.561295193403	0
0	7563	648.763275479594	1
0	7564	648.766114421793	0
0	7566	648.766114421793	1
0	7567	648.825461105062	0
0	7569	648.825461105062	1
0	7570	649.012507865172	0
0	7587	650.633225084741	1
0	7588	650.791102747699	0
0	7590	650.791102747699	1
0	7591	650.925053108001	0
0	7593	650.925053108001	1
0	7594	651.092203420787	0
0	7624	653.040341057947	1
0	7625	653.445094977317	0
0	7629	653.532911796416	1
0	7630	653.550366929161	0
0	7632	653.550366929161	1
0	7633	653.611631092092	0
0	7635	653.611631092092	1
0	7636	653.703040324952	0
0	7645	655.236891825889	1
0	7647	655.278034995917	2
0	7648	655.29885331545	1
0	7651	655.300388724629	0
0	7653	655.300388724629	1
0	7654	655.32001972476	0
0	7656	655.32001972476	1
0	7657	655.445656598911	0
0	7676	659.130886660033	1
0	7677	659.139028672678	0
0	7679	659.139028672678	1
0	7680	659.166057984307	0
0	7682	659.166057984307	1
0	7683	659.196227797086	0
0	7713	661.591817218051	1
0	7714	661.9142865783	0
0	7731	662.960690053616	1
0	7733	662.980179861126	2
0	7735	663.007705031546	3
0	7736	663.234539488821	2
0	7739	663.338045607487	1
0	7741	663.338045607487	2
0	7742	663.423766206263	1
0	7744	663.423766206263	2
0	7746	663.609013106775	3
0	7747	663.863444561865	2
0	7750	663.965447891726	1
0	7753	664.053506622577	0
0	7757	664.178997845721	1
0	7758	664.201881481739	0
0	7760	664.201881481739	1
0	7762	664.272095636111	2
0	7763	664.504127041942	1
0	7766	664.582828261539	0
0	7804	670.823108219166	1
0	7805	670.829044988857	0
0	7807	670.829044988857	1
0	7808	670.846892311838	0
0	7841	673.207123323588	1
0	7842	673.241054753244	0
0	7870	676.277298579057	1
0	7871	676.313552049556	0
0	7873	676.313552049556	1
0	7874	676.317403801552	0
0	7876	676.317403801552	1
0	7877	676.521749397421	0
0	7912	680.627275138775	1
0	7913	681.035862973594	0
0	7920	681.323106474099	1
0	7922	681.538203886347	2
0	7923	681.560897824577	1
0	7926	681.576704273263	0
0	7928	681.576704273263	1
0	7929	681.607581660929	0
0	7993	690.126415838389	1
0	7994	690.160626977205	0
0	8006	690.807009216681	1
0	8007	691.1223936546	0
0	8009	691.1223936546	1
0	8010	691.140649378954	0
0	8040	692.505877020572	1
0	8041	692.539809104318	0
0	8043	692.539809104318	1
0	8044	692.639464845653	0
0	8053	692.81725632559	1
0	8054	692.97490749437	0
0	8082	694.206939124906	1
0	8083	694.591058996907	0
0	8087	694.65529322389	1
0	8088	694.730516019017	0
0	8090	694.730516019017	1
0	8091	694.940720821615	0
0	8131	697.847167691233	1
0	8132	697.879723079513	0
0	8157	701.135334345856	1
0	8158	701.363592180188	0
0	8160	701.363592180188	1
0	8161	701.378416590566	0
0	8163	701.378416590566	1
0	8164	701.478601403201	0
0	8176	702.31602036355	1
0	8177	702.401534478402	0
0	8189	702.939494026081	1
0	8190	702.952581943282	0
0	8202	704.130558065351	1
0	8203	704.500983033641	0
0	8205	704.500983033641	1
0	8206	704.559437332271	0
0	8208	704.559437332271	1
0	8209	704.623846479549	0
0	8213	704.626044790474	1
0	8214	704.656384428888	0
0	8231	706.104905825588	1
0	8232	706.111209064808	0
0	8234	706.111209064808	1
0	8235	706.285942319411	0
0	8237	706.285942319411	1
0	8238	706.315333407209	0
0	8368	719.005571161536	1
0	8370	719.064470627105	2
0	8371	719.309824958134	1
0	8373	719.309824958134	2
0	8374	719.428678698755	1
0	8376	719.428678698755	2
0	8377	719.567317133804	1
0	8380	719.874839388351	0
0	8413	723.881447669929	1
0	8414	723.967452182893	0
0	8416	723.967452182893	1
0	8417	724.60328112223	0
0	8444	728.275202131523	1
0	8445	728.294278071235	0
0	8484	733.639413553608	1
0	8485	733.648106216596	0
0	8515	736.121688028881	1
0	8516	736.137398814356	0
0	8518	736.137398814356	1
0	8519	736.144054043167	0
0	8528	737.390318493057	1
0	8530	737.424814974964	2
0	8531	737.515865210887	1
0	8534	737.543262253814	0
0	8536	737.543262253814	1
0	8537	737.817737469417	0
0	8539	737.817737469417	1
0	8541	737.897592987328	2
0	8542	737.905230141161	1
0	8545	738.132381426335	0
0	8576	742.045434168151	1
0	8577	742.283511987149	0
0	8633	749.763300865525	1
0	8634	749.931440785005	0
0	8654	752.480985172996	1
0	8656	752.613739053524	2
0	8658	752.88185059857	3
0	8659	752.962779260299	2
0	8662	753.009622579845	1
0	8664	753.009622579845	2
0	8665	753.047352978834	1
0	8667	753.047352978834	2
0	8668	753.095663118156	1
0	8670	753.095663118156	2
0	8671	753.096167580855	1
0	8674	753.12020061416	0
0	8691	754.229370934551	1
0	8693	754.28721273265	2
0	8694	754.476220367185	1
0	8696	754.476220367185	2
0	8697	754.563224634884	1
0	8699	754.563224634884	2
0	8700	754.652875141982	1
0	8703	754.671945852994	0
0	8720	756.125030837217	1
0	8721	756.231016639959	0
0	8728	756.377312545206	1
0	8729	756.641003769774	0
0	8775	764.211899413804	1
0	8776	764.374793189263	0
0	8851	774.83567909146	1
0	8852	774.987503743	0
0	8945	783.853635736077	1
0	8946	784.007647221095	0
0	8948	784.007647221095	1
0	8950	784.102234471228	2
0	8951	784.214871729164	1
0	8953	784.214871729164	2
0	8955	784.238879933474	3
0	8956	784.457702867497	2
0	8959	784.468104077553	1
0	8962	784.481370024665	0
0	9011	790.265329540499	1
0	9012	790.316910493072	0
0	9115	803.378635713785	1
0	9116	803.501455216162	0
0	9118	803.501455216162	1
0	9119	803.57782358515	0
0	9121	803.57782358515	1
0	9122	803.603608220496	0
0	9126	803.855417354815	1
0	9127	803.932521768703	0
0	9139	805.04111273197	1
0	9140	805.254941102924	0
0	9149	805.606306055007	1
0	9150	805.653892696975	0
0	9210	811.051419395704	1
0	9211	811.136444969779	0
0	9220	812.660196450889	1
0	9221	812.665002829616	0
0	9335	826.115655039652	1
0	9336	826.186896071502	0
0	9343	826.608928630619	1
0	9344	826.665331474735	0
0	9437	836.490307842957	1
0	9438	836.594569615491	0
0	9506	844.269641124714	1
0	9507	844.436211436133	0
0	9509	844.436211436133	1
0	9510	844.441040722135	0
0	9519	846.34059904546	1
0	9520	846.352621074634	0
0	9537	847.548901179219	1
0	9539	847.590629654729	2
0	9540	847.604378639669	1
0	9543	847.792734652604	0
0	9636	856.858205772179	1
0	9637	856.889863006479	0
0	9652	857.544024346208	1
0	9653	857.58925693579	0
0	9688	859.374572813894	1
0	9689	859.453014989759	0
0	9738	865.916701652758	1
0	9739	866.006675133254	0
0	9741	866.006675133254	1
0	9743	866.103708160555	2
0	9745	866.149327607151	3
0	9746	866.151621779438	2
0	9749	866.246742090893	1
0	9752	866.249732246614	0
0	9790	868.002297467813	1
0	9792	868.075562355921	2
0	9794	868.448587322064	3
0	9795	868.523425177293	2
0	9797	868.523425177293	3
0	9798	868.595692567592	2
0	9800	868.595692567592	3
0	9801	868.60548044267	2
0	9804	868.778045006475	1
0	9806	868.778045006475	2
0	9807	868.807046157391	1
0	9811	868.938320578129	2
0	9813	868.969812842736	3
0	9814	868.972386659125	2
0	9817	869.084864518978	1
0	9820	869.100246157351	0
0	9822	869.100246157351	1
0	9823	869.208735368035	0
0	9825	869.208735368035	1
0	9826	869.612106876299	0
0	9850	872.543091340794	1
0	9851	872.638171744648	0
0	9874	874.205677928543	1
0	9875	874.437533036246	0
0	9887	875.746848839778	1
0	9889	875.800878261992	2
0	9891	875.856866069935	3
0	9892	875.983573026277	2
0	9896	876.005972016537	3
0	9897	876.234790347433	2
0	9899	876.234790347433	3
0	9900	876.264047505821	2
0	9903	876.692513098348	1
0	9905	876.692513098348	2
0	9907	876.871712481735	3
0	9908	876.905596958093	2
0	9911	876.931013879247	1
0	9914	876.936101237106	0
0	9961	882.281147599251	1
0	9963	882.293231153344	2
0	9965	882.310068898318	3
0	9966	882.342054247473	2
0	9969	882.372520362762	1
0	9971	882.372520362762	2
0	9972	882.521333530837	1
0	9974	882.521333530837	2
0	9975	882.525236508368	1
0	9977	882.525236508368	2
0	9978	882.604719563838	1
0	9982	882.643393809935	2
0	9983	882.734103907467	1
0	9986	882.94427405646	0
0	10011	885.576066442672	1
0	10013	885.608445544371	2
0	10014	885.787546799638	1
0	10017	885.866816096743	0
0	10050	888.591265875099	1
0	10051	888.633526926074	0
0	10058	888.943697881408	1
0	10059	888.959995491839	0
0	10087	890.388530766783	1
0	10088	890.562678052005	0
0	10090	890.562678052005	1
0	10091	891.043988579599	0
0	10093	891.043988579599	1
0	10094	891.064044413962	0
0	10108	892.543511947493	1
0	10110	892.582096118764	2
0	10111	892.616411773191	1
0	10113	892.616411773191	2
0	10114	892.670254914007	1
0	10116	892.670254914007	2
0	10117	892.970143185157	1
0	10119	892.970143185157	2
0	10120	893.034337776822	1
0	10123	893.087088372415	0
0	10168	896.973985201293	1
0	10170	896.996837580637	2
0	10171	897.137256096224	1
0	10173	897.137256096224	2
0	10175	897.139678975656	3
0	10176	897.174972133907	2
0	10178	897.174972133907	3
0	10179	897.331242238438	2
0	10181	897.331242238438	3
0	10182	897.345880100967	2
0	10186	897.380649840308	3
0	10187	897.476444788095	2
0	10190	897.613061032182	1
0	10193	897.707764783448	0
0	10210	899.635117811218	1
0	10211	899.662488033468	0
0	10213	899.662488033468	1
0	10214	899.790375442438	0
0	10216	899.790375442438	1
0	10217	900.316017549332	0
0	10229	901.708652153386	1
0	10231	901.877450141491	2
0	10232	901.87758191878	1
0	10235	901.888331395378	0
0	10237	901.888331395378	1
0	10238	901.960929510235	0
0	10263	904.147717373412	1
0	10264	904.252746352012	0
0	10266	904.252746352012	1
0	10267	904.344989208461	0
0	10269	904.344989208461	1
0	10270	904.447944957364	0
0	10308	911.177574996243	1
0	10310	911.25185987724	2
0	10311	911.475018431172	1
0	10313	911.475018431172	2
0	10315	911.611547792012	3
0	10316	911.813255439021	2
0	10319	911.833492950123	1
0	10321	911.833492950123	2
0	10322	911.858200059203	1
0	10325	911.991843375655	0
0	10327	911.991843375655	1
0	10328	911.992500025985	0
0	10361	914.282979931016	1
0	10362	914.388789213044	0
0	10401	916.639584000776	1
0	10402	916.755123488992	0
0	10406	916.825065246501	1
0	10407	916.851185436022	0
0	10461	925.520960932624	1
0	10462	925.525863237119	0
0	10469	925.53767096133	1
0	10471	925.592531056528	2
0	10473	925.627003967238	3
0	10474	925.717614331714	2
0	10477	925.754232440215	1
0	10480	925.823780952436	0
0	10482	925.823780952436	1
0	10483	926.120138140904	0
0	10485	926.120138140904	1
0	10486	926.134027648689	0
0	10519	928.396719256656	1
0	10520	928.497123966558	0
0	10535	929.047438332304	1
0	10536	929.152635321484	0
0	10548	929.280136455027	1
0	10549	929.440426298497	0
0	10551	929.440426298497	1
0	10552	929.603983734663	0
0	10556	929.63843520729	1
0	10557	929.648777224964	0
0	10569	930.374208770117	1
0	10571	930.452334706877	2
0	10572	930.573743988024	1
0	10574	930.573743988024	2
0	10575	930.740192560212	1
0	10577	930.740192560212	2
0	10578	930.997656498392	1
0	10580	930.997656498392	2
0	10581	931.033279913665	1
0	10585	931.044177281526	2
0	10586	931.072570413435	1
0	10589	931.442932496192	0
0	10601	932.766805213298	1
0	10602	932.836666439042	0
0	10638	934.26480852599	1
0	10640	934.276904102768	2
0	10641	934.286513437621	1
0	10644	934.293863371082	0
0	10677	937.052173090451	1
0	10679	937.063773941351	2
0	10680	937.092920978102	1
0	10683	937.346526946393	0
0	10695	938.055597112439	1
0	10696	938.072063458794	0
0	10700	938.156519821128	1
0	10701	938.263865569519	0
0	10703	938.263865569519	1
0	10704	938.415279067641	0
0	10731	939.281131413919	1
0	10732	939.33582625695	0
0	10736	939.404895661851	1
0	10737	939.451239508098	0
0	10739	939.451239508098	1
0	10740	939.553878666676	0
0	10742	939.553878666676	1
0	10743	939.570291406172	0
0	10757	941.200241026597	1
0	10758	941.381719553558	0
0	10765	941.461684781299	1
0	10766	941.65487876636	0
0	10807	944.299879600522	1
0	10808	944.344884508873	0
0	10825	945.859388921245	1
0	10826	946.104467154294	0
0	10828	946.104467154294	1
0	10829	946.106745991228	0
0	10833	946.212303237265	1
0	10834	946.370235870381	0
0	10843	948.498923840179	1
0	10844	948.669124413278	0
0	10877	951.071916562501	1
0	10879	951.158221359058	2
0	10880	951.20852085059	1
0	10883	951.329130065618	0
0	10885	951.329130065618	1
0	10886	951.353742068346	0
0	10888	951.353742068346	1
0	10889	951.44754752471	0
0	10906	953.335653361985	1
0	10907	953.470634767104	0
0	10909	953.470634767104	1
0	10911	953.638090316963	2
0	10912	953.746083173357	1
0	10914	953.746083173357	2
0	10915	953.844818547154	1
0	10918	953.902247305164	0
0	10920	953.902247305164	1
0	10921	953.921841320689	0
0	10940	954.623188712335	1
0	10941	954.666028526327	0
0	10943	954.666028526327	1
0	10944	954.689656608999	0
0	10946	954.689656608999	1
0	10947	954.750818084999	0
0	10977	958.043844734481	1
0	10978	958.072993772628	0
0	10980	958.072993772628	1
0	10981	958.129255659049	0
0	11052	966.417324172036	1
0	11053	966.511249246795	0
0	11057	966.536925970198	1
0	11058	966.611934915274	0
0	11062	966.704436496456	1
0	11063	966.722415675507	0
0	11065	966.722415675507	1
0	11066	966.867250808441	0
0	11068	966.867250808441	1
0	11069	966.971232726902	0
0	11078	968.009724504582	1
0	11080	968.125403558889	2
0	11081	968.140420566312	1
0	11083	968.140420566312	2
0	11084	968.318400314798	1
0	11086	968.318400314798	2
0	11087	968.470955396912	1
0	11089	968.470955396912	2
0	11090	968.493645471126	1
0	11093	968.588096504083	0
0	11097	968.884319248415	1
0	11098	968.906028556772	0
0	11131	972.300430321845	1
0	11133	972.364618881334	2
0	11135	972.576174820797	3
0	11136	972.668813281198	2
0	11138	972.668813281198	3
0	11139	972.679905327464	2
0	11141	972.679905327464	3
0	11142	973.126575802858	2
0	11145	973.154550134725	1
0	11148	973.232631091217	0
0	11160	973.682641133987	1
0	11161	974.08118398873	0
0	11259	984.891630468186	1
0	11260	984.944534272959	0
0	11274	985.716315685946	1
0	11275	985.792428645052	0
0	11277	985.792428645052	1
0	11278	986.073382706066	0
0	11280	986.073382706066	1
0	11281	986.101723819641	0
0	11301	987.131752719899	1
0	11302	987.148230277542	0
0	11306	987.18017960106	1
0	11307	987.529348129306	0
0	11309	987.529348129306	1
0	11310	987.659537279256	0
0	11312	987.659537279256	1
0	11313	987.723342655415	0
0	11322	988.268040310007	1
0	11324	988.432361140536	2
0	11325	988.534643571452	1
0	11327	988.534643571452	2
0	11328	988.536469925216	1
0	11331	988.612266354801	0
0	11343	991.378584603769	1
0	11344	991.379957790756	0
0	11374	995.001887741506	1
0	11376	995.076284352327	2
0	11378	995.099706583132	3
0	11380	995.14793202518	4
0	11381	995.174137848153	3
0	11384	995.228826554459	2
0	11387	995.501984454841	1
0	11389	995.501984454841	2
0	11390	995.7378458286	1
0	11392	995.7378458286	2
0	11393	996.073686693334	1
0	11395	996.073686693334	2
0	11396	996.091238694387	1
0	11399	996.162426330502	0
0	11424	997.889366018688	1
0	11425	998.12636499151	0
0	11427	998.12636499151	1
0	11428	998.293135035826	0
0	11440	999.408047344361	1
0	11441	999.481431269843	0
0	11476	1004.652703227682	1
0	11477	1004.723636466191	0
0	11479	1004.723636466191	1
0	11480	1004.766381828664	0
0	11494	1005.930026492583	1
0	11496	1005.960543131719	2
0	11497	1006.003815044046	1
0	11499	1006.003815044046	2
0	11501	1006.038223580862	3
0	11502	1006.180094821844	2
0	11504	1006.180094821844	3
0	11505	1006.222490034678	2
0	11508	1006.231777253408	1
0	11512	1006.303682664544	2
0	11513	1006.408297158024	1
0	11516	1006.419506952432	0
0	11624	1016.512956669004	1
0	11625	1016.537573663098	0
0	11655	1020.356269523442	1
0	11656	1020.364983844997	0
0	11658	1020.364983844997	1
0	11659	1020.49134505408	0
0	11661	1020.49134505408	1
0	11663	1020.527215010479	2
0	11664	1020.567435786784	1
0	11667	1020.577174104129	0
0	11671	1020.776983721611	1
0	11672	1020.866608110009	0
0	11674	1020.866608110009	1
0	11675	1020.877532952285	0
0	11677	1020.877532952285	1
0	11679	1020.885593862664	2
0	11680	1021.1398798477	1
0	11683	1021.250924124282	0
0	11719	1024.570994917378	1
0	11720	1024.573243701548	0
0	11737	1026.672433617124	1
0	11738	1026.676035168859	0
0	11800	1034.637146175072	1
0	11801	1034.74398852113	0
0	11826	1039.555598750227	1
0	11828	1039.614387241879	2
0	11829	1039.645064354309	1
0	11832	1039.66402184486	0
0	11855	1040.427850723602	1
0	11856	1040.68035127178	0
0	11865	1042.067330110382	1
0	11866	1042.157769283194	0
0	11868	1042.157769283194	1
0	11869	1042.165832902374	0
0	11944	1048.179259209497	1
0	11945	1048.193027988347	0
0	11947	1048.193027988347	1
0	11948	1048.252639820785	0
0	11973	1049.957155394957	1
0	11974	1050.114494325934	0
0	11986	1050.847135917408	1
0	11987	1051.295295458176	0
0	11989	1051.295295458176	1
0	11990	1051.330311990508	0
0	11992	1051.330311990508	1
0	11993	1051.378847798748	0
0	12128	1065.66672447921	1
0	12129	1065.847390753362	0
0	12138	1067.548374287126	1
0	12139	1067.611710243459	0
0	12143	1067.703267853489	1
0	12144	1067.923172305458	0
0	12146	1067.923172305458	1
0	12147	1067.954828984116	0
0	12149	1067.954828984116	1
0	12150	1067.972584838999	0
0	12167	1070.475085293133	1
0	12168	1070.559475584052	0
0	12204	1076.247508180434	1
0	12206	1076.312743580661	2
0	12207	1076.356818925143	1
0	12209	1076.356818925143	2
0	12210	1076.504811333601	1
0	12213	1076.532962913266	0
0	12215	1076.532962913266	1
0	12216	1076.553488147462	0
0	12228	1077.915557974368	1
0	12229	1078.003906736483	0
0	12249	1078.946068811859	1
0	12250	1078.998371107286	0
0	12262	1079.476891672987	1
0	12264	1079.514225754462	2
0	12266	1079.525461072782	3
0	12268	1079.626756023651	4
0	12269	1079.65270029432	3
0	12272	1079.660546584935	2
0	12274	1079.660546584935	3
0	12275	1079.685477877694	2
0	12278	1079.717466642328	1
0	12280	1079.717466642328	2
0	12282	1079.722251453077	3
0	12284	1079.737036506736	4
0	12285	1079.843691976001	3
0	12287	1079.843691976001	4
0	12288	1079.858624164381	3
0	12292	1079.893302330181	4
0	12293	1079.922380444653	3
0	12296	1079.9531139236	2
0	12298	1079.9531139236	3
0	12299	1080.04421697314	2
0	12301	1080.04421697314	3
0	12302	1080.193127256517	2
0	12306	1080.273885820103	3
0	12307	1080.34760750583	2
0	12309	1080.34760750583	3
0	12310	1080.384123545593	2
0	12313	1080.429705867882	1
0	12316	1080.478057511011	0
0	12318	1080.478057511011	1
0	12319	1080.487031348478	0
0	12359	1084.398782018151	1
0	12360	1084.531625513553	0
0	12362	1084.531625513553	1
0	12363	1084.618490928601	0
0	12391	1086.330221094786	1
0	12392	1086.390110706761	0
0	12428	1091.876304256421	1
0	12429	1092.033791025087	0
0	12454	1094.523457410533	1
0	12455	1094.582321246186	0
0	12475	1095.889577777644	1
0	12476	1095.925561462653	0
0	12478	1095.925561462653	1
0	12480	1095.987943261449	2
0	12481	1096.041237707927	1
0	12484	1096.233283607377	0
0	12527	1103.126127505033	1
0	12529	1103.144348875961	2
0	12530	1103.237467563904	1
0	12533	1103.421010892477	0
0	12535	1103.421010892477	1
0	12536	1103.431979244192	0
0	12545	1105.964017640121	1
0	12546	1106.021892117621	0
0	12548	1106.021892117621	1
0	12549	1106.293534751278	0
0	12551	1106.293534751278	1
0	12552	1106.458558549489	0
0	12619	1111.564173239175	1
0	12620	1111.708679556932	0
0	12622	1111.708679556932	1
0	12623	1111.798501667727	0
0	12625	1111.798501667727	1
0	12626	1111.854187968032	0
0	12638	1112.638528723769	1
0	12639	1112.706647332767	0
0	12669	1116.774742007444	1
0	12671	1116.862427154583	2
0	12672	1116.878098589689	1
0	12676	1116.947581073425	2
0	12678	1116.975113637881	3
0	12679	1116.977513799044	2
0	12682	1117.067791933947	1
0	12686	1117.195170291093	2
0	12687	1117.405916795579	1
0	12690	1117.513205869705	0
0	12692	1117.513205869705	1
0	12693	1117.523329925271	0
0	12695	1117.523329925271	1
0	12697	1117.571459092578	2
0	12698	1117.678073801964	1
0	12701	1117.819975028559	0
0	12726	1118.960912330304	1
0	12728	1118.969684372259	2
0	12729	1119.081270334202	1
0	12731	1119.081270334202	2
0	12732	1119.138469979563	1
0	12735	1119.170896566854	0
0	12749	1120.178914736215	1
0	12750	1120.279800619373	0
0	12752	1120.279800619373	1
0	12753	1120.395297627045	0
0	12755	1120.395297627045	1
0	12756	1120.455401263974	0
0	12773	1122.81605675142	1
0	12775	1122.858424865553	2
0	12776	1122.915556619678	1
0	12779	1122.930213970759	0
0	12807	1123.647025000886	1
0	12809	1123.721062215037	2
0	12811	1123.734336325285	3
0	12812	1123.765240514781	2
0	12816	1123.784844417366	3
0	12817	1123.804929348482	2
0	12819	1123.804929348482	3
0	12820	1123.807578026207	2
0	12822	1123.807578026207	3
0	12823	1123.872017324918	2
0	12825	1123.872017324918	3
0	12827	1123.98600614876	4
0	12828	1124.056388138284	3
0	12830	1124.056388138284	4
0	12831	1124.26472905826	3
0	12835	1124.339688850492	4
0	12837	1124.428521645264	5
0	12838	1124.475435205127	4
0	12841	1124.479392846829	3
0	12844	1124.550399087582	2
0	12847	1124.587414567871	1
0	12851	1124.721332245015	2
0	12852	1124.733494832482	1
0	12855	1124.866264270127	0
0	12872	1126.601215665929	1
0	12874	1126.746047669665	2
0	12875	1126.750129110285	1
0	12878	1126.758094419051	0
0	12880	1126.758094419051	1
0	12881	1126.831171754724	0
0	12898	1128.549188710662	1
0	12899	1128.561278205113	0
0	12919	1130.298414877154	1
0	12920	1130.355464078879	0
0	12922	1130.355464078879	1
0	12923	1130.37016741426	0
0	12927	1130.394194442942	1
0	12928	1130.455689075433	0
0	12961	1132.532623559056	1
0	12962	1132.548164598591	0
0	12966	1132.579804494728	1
0	12967	1132.640990442844	0
0	12969	1132.640990442844	1
0	12970	1132.651490406957	0
0	12972	1132.651490406957	1
0	12973	1132.66700800953	0
0	13037	1140.876917451312	1
0	13038	1140.989279887626	0
0	13040	1140.989279887626	1
0	13041	1140.993956917456	0
0	13043	1140.993956917456	1
0	13044	1141.087277844817	0
0	13061	1141.891334113344	1
0	13062	1141.963912870552	0
0	13071	1142.306480780499	1
0	13072	1142.337159632762	0
0	13084	1142.584075619713	1
0	13085	1142.600396193529	0
0	13089	1142.750426959545	1
0	13090	1142.849340653074	0
0	13092	1142.849340653074	1
0	13093	1142.854106951739	0
0	13107	1143.278815744566	1
0	13109	1143.401257204049	2
0	13110	1143.464810668485	1
0	13112	1143.464810668485	2
0	13113	1143.473954725908	1
0	13115	1143.473954725908	2
0	13116	1143.501275921269	1
0	13119	1143.561855431894	0
0	13154	1147.211289821686	1
0	13156	1147.258812505684	2
0	13157	1147.275692178298	1
0	13160	1147.362427327386	0
0	13183	1149.028214042354	1
0	13184	1149.067989971064	0
0	13214	1150.066812182813	1
0	13215	1150.32609113227	0
0	13217	1150.32609113227	1
0	13219	1150.386029818721	2
0	13220	1150.388712287393	1
0	13222	1150.388712287393	2
0	13223	1150.409899876731	1
0	13226	1150.458789957233	0
0	13228	1150.458789957233	1
0	13229	1150.626781142291	0
0	13304	1160.165188169457	1
0	13305	1160.245017994391	0
0	13307	1160.245017994391	1
0	13308	1160.408567466205	0
0	13317	1160.700829451609	1
0	13318	1160.818505621166	0
0	13341	1164.628895242645	1
0	13342	1164.777188524384	0
0	13356	1165.956078020691	1
0	13357	1165.98233273994	0
0	13359	1165.98233273994	1
0	13360	1166.18043201804	0
0	13362	1166.18043201804	1
0	13363	1166.198357219013	0
0	13380	1167.640168137103	1
0	13382	1167.657543336133	2
0	13383	1167.801527976056	1
0	13387	1167.857061347404	2
0	13388	1167.906829541741	1
0	13390	1167.906829541741	2
0	13391	1167.916652870558	1
0	13394	1168.008052073417	0
0	13416	1168.850194197728	1
0	13418	1168.9703663437	2
0	13419	1169.129434040802	1
0	13422	1169.165820583319	0
0	13457	1175.909152691617	1
0	13458	1175.968342913486	0
0	13460	1175.968342913486	1
0	13461	1176.075874992181	0
0	13465	1176.135751728507	1
0	13466	1176.154839772717	0
0	13520	1183.840381629146	1
0	13521	1183.932032531959	0
0	13533	1184.888404715821	1
0	13534	1184.918234652925	0
0	13536	1184.918234652925	1
0	13537	1185.131194992012	0
0	13539	1185.131194992012	1
0	13540	1185.165473525594	0
0	13544	1185.191537756791	1
0	13545	1185.513254348557	0
0	13600	1190.345349941246	1
0	13601	1190.369071932641	0
0	13613	1191.06272844856	1
0	13614	1191.131108891607	0
0	13616	1191.131108891607	1
0	13617	1191.223581065805	0
0	13619	1191.223581065805	1
0	13620	1191.239876882385	0
0	13663	1194.210748776074	1
0	13664	1194.249532537891	0
0	13666	1194.249532537891	1
0	13667	1194.296134254265	0
0	13669	1194.296134254265	1
0	13670	1194.365054007133	0
0	13726	1198.806192564349	1
0	13727	1198.876752189734	0
0	13729	1198.876752189734	1
0	13730	1199.104118075499	0
0	13732	1199.104118075499	1
0	13733	1199.21713246722	0
0	13742	1199.519822977836	1
0	13744	1199.596957955215	2
0	13745	1199.71999601796	1
0	13747	1199.71999601796	2
0	13748	1199.755228037586	1
0	13750	1199.755228037586	2
0	13751	1199.821519583941	1
0	13755	1199.839822025917	2
0	13756	1199.853327880516	1
0	13759	1200.020751597226	0
0	13787	1202.637045242785	1
0	13788	1202.788135023966	0
0	13853	1206.900771057901	1
0	13854	1206.906911958364	0
0	13858	1206.996110381067	1
0	13859	1207.000573038292	0
0	13916	1212.534796775207	1
0	13917	1212.548749146056	0
0	13919	1212.548749146056	1
0	13921	1212.631467501706	2
0	13923	1212.863840379599	3
0	13924	1213.115832360113	2
0	13926	1213.115832360113	3
0	13927	1213.122891190178	2
0	13930	1213.14241933358	1
0	13932	1213.14241933358	2
0	13933	1213.157802581358	1
0	13935	1213.157802581358	2
0	13936	1213.224480629442	1
0	13939	1213.247988025654	0
0	13977	1216.369119598761	1
0	13978	1216.428249957756	0
0	14024	1221.058485110968	1
0	14025	1221.095752258883	0
0	14027	1221.095752258883	1
0	14028	1221.139145783475	0
0	14092	1226.96448226185	1
0	14093	1226.980728520969	0
0	14095	1226.980728520969	1
0	14096	1227.170617503467	0
0	14098	1227.170617503467	1
0	14099	1227.329317219911	0
0	14124	1229.460789823016	1
0	14125	1229.499241716238	0
0	14127	1229.499241716238	1
0	14129	1229.501463200251	2
0	14130	1229.52885879828	1
0	14133	1229.621348632376	0
0	14148	1229.950386614617	1
0	14149	1230.056349092986	0
0	14242	1240.883690435	1
0	14243	1240.985965968999	0
0	14250	1241.168029829035	1
0	14252	1241.24499582128	2
0	14253	1241.504407998989	1
0	14256	1241.692249844544	0
0	14258	1241.692249844544	1
0	14259	1241.751404389689	0
0	14261	1241.751404389689	1
0	14262	1241.795146952556	0
0	14308	1244.765140940412	1
0	14309	1244.948615190584	0
0	14311	1244.948615190584	1
0	14313	1244.976618514827	2
0	14314	1245.334463191475	1
0	14316	1245.334463191475	2
0	14317	1245.434843724719	1
0	14320	1245.544413120913	0
0	14322	1245.544413120913	1
0	14323	1245.560165569729	0
0	14340	1246.904136952528	1
0	14341	1246.946227539207	0
0	14393	1252.63291718716	1
0	14394	1252.666596014539	0
0	14438	1257.001654478841	1
0	14439	1257.209661801813	0
0	14514	1267.032522778855	1
0	14515	1267.290978758513	0
0	14545	1269.412057241602	1
0	14546	1269.48355490965	0
0	14579	1271.116220891575	1
0	14580	1271.159399711603	0
0	14582	1271.159399711603	1
0	14583	1271.206226631231	0
0	14597	1272.423775622244	1
0	14598	1272.440904675759	0
0	14600	1272.440904675759	1
0	14601	1272.51968061566	0
0	14636	1275.648328336354	1
0	14637	1275.850350122288	0
0	14657	1277.205106866928	1
0	14658	1277.294375858194	0
0	14680	1279.594872925175	1
0	14681	1279.716097634727	0
0	14683	1279.716097634727	1
0	14684	1279.761306140592	0
0	14686	1279.761306140592	1
0	14687	1279.801958812663	0
0	14727	1283.763803295708	1
0	14728	1283.769176400707	0
0	14753	1286.863149258101	1
0	14754	1286.964617027138	0
0	14829	1292.059807003754	1
0	14830	1292.125102172809	0
0	14834	1292.167871928998	1
0	14835	1292.239337560181	0
0	14884	1294.968663129158	1
0	14885	1294.99734757907	0
0	14952	1300.473602808696	1
0	14953	1300.522046493726	0
0	14955	1300.522046493726	1
0	14956	1300.715137985739	0
0	14958	1300.715137985739	1
0	14959	1300.778231987061	0
0	14963	1300.844761417702	1
0	14964	1300.869297738915	0
0	15010	1303.857308293547	1
0	15011	1303.974789325654	0
0	15015	1304.03398299776	1
0	15016	1304.11895520048	0
0	15018	1304.11895520048	1
0	15019	1304.14464662068	0
0	15021	1304.14464662068	1
0	15023	1304.233292155812	2
0	15025	1304.308863484362	3
0	15026	1304.385876933976	2
0	15029	1304.389048175056	1
0	15032	1304.465942796545	0
0	15055	1305.640653069707	1
0	15056	1305.712008857589	0
0	15088	1306.829681156083	1
0	15089	1307.056330236443	0
0	15119	1311.619115999991	1
0	15120	1311.733770733236	0
0	15132	1312.26530524644	1
0	15133	1312.373414786136	0
0	15145	1313.108153161644	1
0	15146	1313.120610469325	0
0	15148	1313.120610469325	1
0	15149	1313.155742337241	0
0	15151	1313.155742337241	1
0	15153	1313.157208594993	2
0	15155	1313.420200323125	3
0	15156	1313.474247307863	2
0	15159	1313.57751267498	1
0	15162	1313.589686346054	0
0	15164	1313.589686346054	1
0	15165	1313.713885460599	0
0	15167	1313.713885460599	1
0	15168	1313.751506111367	0
0	15185	1314.435946741703	1
0	15186	1314.46488680967	0
0	15188	1314.46488680967	1
0	15189	1314.467563757385	0
0	15222	1315.959858643468	1
0	15224	1315.962790710418	2
0	15225	1315.994396154365	1
0	15227	1315.994396154365	2
0	15228	1316.10883604275	1
0	15230	1316.10883604275	2
0	15231	1316.300020690609	1
0	15234	1316.448930674865	0
0	15259	1320.227275770715	1
0	15260	1320.373761232639	0
0	15337	1327.990281791844	1
0	15338	1328.213127598908	0
0	15340	1328.213127598908	1
0	15341	1328.22519620335	0
0	15353	1328.548899291274	1
0	15354	1329.091008813256	0
0	15369	1329.588073124765	1
0	15370	1329.628653854094	0
0	15387	1330.065057336166	1
0	15388	1330.098515118442	0
0	15395	1330.195020804903	1
0	15396	1330.326912584103	0
0	15416	1331.034928131911	1
0	15417	1331.073097814958	0
0	15460	1337.594359052919	1
0	15461	1337.788976175638	0
0	15486	1340.15752411416	1
0	15487	1340.274475324532	0
0	15489	1340.274475324532	1
0	15490	1340.420228684431	0
0	15492	1340.420228684431	1
0	15493	1340.446521808558	0
0	15517	1341.891689278421	1
0	15518	1341.90791409224	0
0	15570	1345.743146675526	1
0	15571	1345.891660359067	0
0	15612	1347.890619921453	1
0	15613	1348.016311747574	0
0	15622	1348.831851603472	1
0	15623	1349.061545462501	0
0	15625	1349.061545462501	1
0	15626	1349.212825825908	0
0	15628	1349.212825825908	1
0	15629	1349.333518525023	0
0	15646	1350.24227555437	1
0	15647	1350.501614792707	0
0	15649	1350.501614792707	1
0	15651	1350.545573155295	2
0	15652	1350.592196394864	1
0	15654	1350.592196394864	2
0	15655	1350.610432538993	1
0	15658	1350.679395429674	0
0	15660	1350.679395429674	1
0	15661	1350.796128188278	0
0	15705	1354.458350465064	1
0	15706	1354.566703116106	0
0	15710	1354.575176146297	1
0	15711	1354.632196572936	0
0	15713	1354.632196572936	1
0	15714	1354.833225973175	0
0	15768	1359.187898340401	1
0	15769	1359.235118088523	0
0	15771	1359.235118088523	1
0	15772	1359.251624372985	0
0	15810	1365.196684351282	1
0	15811	1365.21496846811	0
0	15813	1365.21496846811	1
0	15814	1365.235225565091	0
0	15816	1365.235225565091	1
0	15817	1365.564078999906	0
0	15826	1366.187516659123	1
0	15827	1366.282033519541	0
0	15842	1367.133677867796	1
0	15844	1367.15079168975	2
0	15845	1367.242545315147	1
0	15848	1367.247790838853	0
0	15908	1372.720341816707	1
0	15909	1372.891948029374	0
0	15921	1373.460837629513	1
0	15922	1373.506103841789	0
0	15924	1373.506103841789	1
0	15925	1373.518054067525	0
0	15927	1373.518054067525	1
0	15928	1373.641122908477	0
0	15950	1374.731672044474	1
0	15952	1374.798256274319	2
0	15953	1374.854948812727	1
0	15955	1374.854948812727	2
0	15957	1374.926461802617	3
0	15958	1374.969017567934	2
0	15960	1374.969017567934	3
0	15961	1375.009590515851	2
0	15964	1375.047328002239	1
0	15968	1375.258890493893	2
0	15969	1375.389190177427	1
0	15971	1375.389190177427	2
0	15972	1375.720619117704	1
0	15975	1375.723343168566	0
0	15977	1375.723343168566	1
0	15978	1375.724387527548	0
0	16003	1376.792332564286	1
0	16004	1376.847687681742	0
0	16006	1376.847687681742	1
0	16007	1377.111484673718	0
0	16024	1377.908515856568	1
0	16025	1377.930524241039	0
0	16027	1377.930524241039	1
0	16028	1377.940548787798	0
0	16030	1377.940548787798	1
0	16031	1378.011133041348	0
0	16035	1378.029532608783	1
0	16036	1378.115615663536	0
0	16040	1378.124937584148	1
0	16042	1378.132590809914	2
0	16043	1378.16282380066	1
0	16046	1378.181034752913	0
0	16092	1384.12796234835	1
0	16094	1384.236526950015	2
0	16095	1384.267265541682	1
0	16097	1384.267265541682	2
0	16098	1384.41065376791	1
0	16100	1384.41065376791	2
0	16101	1384.440626271011	1
0	16103	1384.440626271011	2
0	16104	1384.488426125641	1
0	16107	1384.660078543796	0
0	16179	1393.935847577695	1
0	16180	1393.972205199741	0
0	16203	1394.800456237146	1
0	16204	1394.826982657007	0
0	16227	1395.398142105531	1
0	16228	1395.452034727398	0
0	16235	1395.461118018947	1
0	16236	1395.522304606028	0
0	16256	1396.902435428867	1
0	16257	1396.929044547761	0
0	16259	1396.929044547761	1
0	16260	1397.076645217645	0
0	16262	1397.076645217645	1
0	16263	1397.162649184093	0
0	16288	1398.09385949909	1
0	16289	1398.10614454959	0
0	16309	1398.87733996293	1
0	16310	1398.912437609725	0
0	16343	1401.763249543446	1
0	16344	1401.911744824392	0
0	16346	1401.911744824392	1
0	16348	1402.180367472938	2
0	16349	1402.315779216812	1
0	16351	1402.315779216812	2
0	16353	1402.34700942321	3
0	16354	1402.536445154499	2
0	16357	1402.599564945962	1
0	16359	1402.599564945962	2
0	16360	1402.707722139748	1
0	16364	1402.91036977197	2
0	16365	1403.026375473663	1
0	16368	1403.296010609807	0
0	16398	1407.566766658409	1
0	16399	1407.578318680691	0
0	16401	1407.578318680691	1
0	16402	1407.620174903564	0
0	16404	1407.620174903564	1
0	16405	1407.672934332141	0
0	16417	1408.174150654301	1
0	16418	1408.206943796284	0
0	16430	1408.534020521514	1
0	16431	1408.537511151406	0
0	16433	1408.537511151406	1
0	16435	1408.555178692122	2
0	16436	1408.640910867722	1
0	16438	1408.640910867722	2
0	16439	1408.687152098858	1
0	16442	1408.697139633203	0
0	16464	1413.078299438655	1
0	16465	1413.17873365613	0
0	16485	1414.574405854907	1
0	16486	1414.669506769459	0
0	16488	1414.669506769459	1
0	16489	1414.70093164759	0
0	16491	1414.70093164759	1
0	16492	1414.816945931572	0
0	16525	1417.552603086047	1
0	16526	1417.615104558967	0
0	16541	1418.553649633049	1
0	16542	1418.803176848845	0
0	16549	1419.214246153163	1
0	16550	1419.21900728489	0
0	16554	1419.263895433291	1
0	16555	1419.31869000102	0
0	16614	1426.886709102216	1
0	16616	1426.899818506937	2
0	16617	1426.943639211003	1
0	16619	1426.943639211003	2
0	16620	1427.237640368875	1
0	16623	1427.269509328004	0
0	16625	1427.269509328004	1
0	16626	1427.424422298595	0
0	16638	1428.764526215698	1
0	16640	1429.025819313126	2
0	16641	1429.040610286776	1
0	16644	1429.087613953417	0
0	16646	1429.087613953417	1
0	16647	1429.150455112589	0
0	16649	1429.150455112589	1
0	16650	1429.267710626145	0
0	16716	1435.980255771205	1
0	16717	1436.211562178056	0
0	16719	1436.211562178056	1
0	16720	1436.249820624797	0
0	16729	1437.666251035566	1
0	16730	1437.708953853133	0
0	16732	1437.708953853133	1
0	16733	1437.782623534418	0
0	16735	1437.782623534418	1
0	16736	1437.901029670207	0
0	16740	1438.21537973626	1
0	16741	1438.274636719769	0
0	16793	1443.366852613179	1
0	16794	1443.395028675049	0
0	16798	1443.443237116193	1
0	16799	1443.551264018662	0
0	16874	1454.169805394699	1
0	16875	1454.187944962006	0
0	16877	1454.187944962006	1
0	16879	1454.197741189146	2
0	16880	1454.300001508479	1
0	16882	1454.300001508479	2
0	16883	1454.366790772352	1
0	16886	1454.445442776798	0
0	16903	1457.095968558558	1
0	16905	1457.12439696017	2
0	16906	1457.218352783123	1
0	16909	1457.278699178518	0
0	16913	1457.333252562255	1
0	16914	1457.391677627833	0
0	16916	1457.391677627833	1
0	16917	1457.459837208119	0
0	16919	1457.459837208119	1
0	16920	1457.473714102898	0
0	16929	1458.678051214844	1
0	16930	1458.870473499201	0
0	16932	1458.870473499201	1
0	16933	1458.920843812229	0
0	16942	1459.20241729512	1
0	16943	1459.331695761201	0
0	16976	1461.171642395553	1
0	16977	1461.191454089991	0
0	17013	1465.51436149634	1
0	17015	1465.575915513993	2
0	17017	1465.577353106127	3
0	17018	1465.765763132243	2
0	17021	1465.77172007293	1
0	17023	1465.77172007293	2
0	17024	1466.006065525334	1
0	17027	1466.123428859987	0
0	17031	1466.128293238396	1
0	17032	1466.186426165356	0
0	17062	1467.865574762628	1
0	17063	1467.870584062279	0
0	17065	1467.870584062279	1
0	17066	1468.035183796945	0
0	17068	1468.035183796945	1
0	17069	1468.041679685948	0
0	17081	1468.798631767327	1
0	17082	1468.803397629882	0
0	17099	1470.588366412099	1
0	17101	1470.657173075231	2
0	17103	1471.113529481267	3
0	17104	1471.118937418903	2
0	17108	1471.324178135461	3
0	17109	1471.337896416177	2
0	17111	1471.337896416177	3
0	17112	1471.470453708941	2
0	17115	1471.537196568567	1
0	17118	1471.593078256857	0
0	17120	1471.593078256857	1
0	17121	1471.614366609794	0
0	17125	1471.698405112153	1
0	17126	1471.807485689409	0
0	17130	1471.951995651355	1
0	17131	1471.98573708925	0
0	17177	1475.55269696376	1
0	17178	1475.578177884767	0
0	17180	1475.578177884767	1
0	17182	1475.620525371851	2
0	17183	1475.703546339322	1
0	17185	1475.703546339322	2
0	17186	1475.731633534056	1
0	17189	1475.835390461227	0
0	17209	1477.022145603141	1
0	17210	1477.120730860685	0
0	17282	1486.777677667192	1
0	17283	1486.997864855714	0
0	17329	1490.66919261002	1
0	17330	1490.725942345771	0
0	17332	1490.725942345771	1
0	17333	1490.763760710242	0
0	17335	1490.763760710242	1
0	17336	1490.836673100283	0
0	17345	1490.999680148243	1
0	17346	1491.132807605427	0
0	17348	1491.132807605427	1
0	17349	1491.144009366929	0
0	17371	1492.909922660764	1
0	17372	1492.973601199458	0
0	17374	1492.973601199458	1
0	17376	1493.122817297621	2
0	17377	1493.135402326713	1
0	17379	1493.135402326713	2
0	17380	1493.33897108441	1
0	17384	1493.449048546229	2
0	17385	1493.640679343788	1
0	17387	1493.640679343788	2
0	17388	1493.737488463751	1
0	17391	1493.972164788891	0
0	17426	1496.764519022053	1
0	17427	1496.824270147129	0
0	17468	1499.722417015237	1
0	17469	1499.73000443191	0
0	17584	1510.273641581014	1
0	17585	1510.374885138066	0
0	17587	1510.374885138066	1
0	17588	1510.401818923495	0
0	17590	1510.401818923495	1
0	17592	1510.49566316174	2
0	17594	1510.56774417479	3
0	17596	1510.573372843827	4
0	17597	1510.764999775156	3
0	17600	1511.088656774845	2
0	17603	1511.134664323602	1
0	17605	1511.134664323602	2
0	17607	1511.214713707757	3
0	17609	1511.237595479619	4
0	17610	1511.244488045272	3
0	17612	1511.244488045272	4
0	17613	1511.316242206058	3
0	17615	1511.316242206058	4
0	17616	1511.32205243966	3
0	17620	1511.435737500697	4
0	17622	1511.59238103972	5
0	17623	1511.912331115807	4
0	17625	1511.912331115807	5
0	17626	1512.05021466998	4
0	17629	1512.095790919711	3
0	17632	1512.304219655958	2
0	17635	1512.546502582205	1
0	17637	1512.546502582205	2
0	17638	1512.56905739832	1
0	17640	1512.56905739832	2
0	17641	1512.886663192788	1
0	17644	1512.974136069168	0
0	17656	1513.359398396147	1
0	17657	1513.362535571522	0
0	17679	1515.879790485335	1
0	17680	1516.002361518773	0
0	17682	1516.002361518773	1
0	17683	1516.055167454943	0
0	17692	1516.788032117477	1
0	17693	1516.896207861371	0
0	17695	1516.896207861371	1
0	17696	1517.017059814801	0
0	17729	1519.262024668062	1
0	17730	1519.3047590629	0
0	17782	1524.736269841784	1
0	17783	1524.843610039784	0
0	17795	1526.070232873597	1
0	17796	1526.107876321953	0
0	17800	1526.183051601427	1
0	17801	1526.309692917058	0
0	17803	1526.309692917058	1
0	17804	1526.336044485128	0
0	17813	1527.376139984084	1
0	17815	1527.44459597047	2
0	17816	1527.566898722797	1
0	17818	1527.566898722797	2
0	17819	1527.589085564745	1
0	17821	1527.589085564745	2
0	17822	1527.593861593391	1
0	17824	1527.593861593391	2
0	17826	1527.663192505771	3
0	17827	1527.848235473648	2
0	17830	1527.856279877253	1
0	17833	1527.86919100629	0
0	17837	1527.943769539	1
0	17839	1527.951592790429	2
0	17840	1527.958940409919	1
0	17842	1527.958940409919	2
0	17843	1527.994824075817	1
0	17845	1527.994824075817	2
0	17846	1528.01546290407	1
0	17849	1528.040153510944	0
0	17879	1529.885981592907	1
0	17881	1529.946132046206	2
0	17883	1529.959122870334	3
0	17884	1529.999426352395	2
0	17887	1530.410886623962	1
0	17890	1530.539959393999	0
0	17902	1531.038703340811	1
0	17903	1531.153724693445	0
0	17905	1531.153724693445	1
0	17906	1531.184619259021	0
0	17908	1531.184619259021	1
0	17909	1531.229397275235	0
0	17947	1534.742138556068	1
0	17948	1534.789161815078	0
0	17987	1536.616622967381	1
0	17988	1536.643400081075	0
0	18021	1539.397900080038	1
0	18022	1539.467870970766	0
0	18024	1539.467870970766	1
0	18025	1539.500380736817	0
0	18027	1539.500380736817	1
0	18028	1539.551198090395	0
0	18045	1541.50912285633	1
0	18046	1541.598466331313	0
0	18048	1541.598466331313	1
0	18049	1541.734871121419	0
0	18082	1543.673506215865	1
0	18083	1543.805715894965	0
0	18085	1543.805715894965	1
0	18086	1543.807594613905	0
0	18088	1543.807594613905	1
0	18089	1543.928628055196	0
0	18098	1545.20498080858	1
0	18099	1545.235852081307	0
0	18148	1551.936391630742	1
0	18150	1551.99961911726	2
0	18151	1552.092349938348	1
0	18153	1552.092349938348	2
0	18154	1552.099873653383	1
0	18156	1552.099873653383	2
0	18157	1552.104167360782	1
0	18159	1552.104167360782	2
0	18160	1552.213678127168	1
0	18163	1552.217360788973	0
0	18196	1554.176751772274	1
0	18198	1554.233477720384	2
0	18200	1554.276835336414	3
0	18202	1554.290249321826	4
0	18203	1554.40370087256	3
0	18206	1554.417738613597	2
0	18208	1554.417738613597	3
0	18209	1554.423774744332	2
0	18213	1554.717255641334	3
0	18214	1554.719459546205	2
0	18217	1554.885202038484	1
0	18219	1554.885202038484	2
0	18221	1554.897573809101	3
0	18222	1554.98338952375	2
0	18225	1554.986879409536	1
0	18227	1554.986879409536	2
0	18228	1555.007142912934	1
0	18232	1555.016181706283	2
0	18233	1555.033432633976	1
0	18235	1555.033432633976	2
0	18236	1555.269097923789	1
0	18239	1555.361612590668	0
0	18241	1555.361612590668	1
0	18242	1555.378525154453	0
0	18311	1560.55993438786	1
0	18312	1560.561837709883	0
0	18387	1567.192698028349	1
0	18388	1567.243053160705	0
0	18390	1567.243053160705	1
0	18391	1567.26553885356	0
0	18393	1567.26553885356	1
0	18395	1567.33007379055	2
0	18396	1567.361026647597	1
0	18399	1567.553055259868	0
0	18406	1567.978796015525	1
0	18407	1567.979694537425	0
0	18437	1570.345194102723	1
0	18438	1570.379738704023	0
0	18440	1570.379738704023	1
0	18441	1570.529770176577	0
0	18443	1570.529770176577	1
0	18444	1570.681154465916	0
0	18516	1577.80415101254	1
0	18517	1577.964378655665	0
0	18529	1579.622737338345	1
0	18530	1579.867622353903	0
0	18532	1579.867622353903	1
0	18533	1579.876584311418	0
0	18535	1579.876584311418	1
0	18536	1580.192147082428	0
0	18590	1586.281676771426	1
0	18591	1586.549027898407	0
0	18595	1586.719122836767	1
0	18596	1586.791303893047	0
0	18600	1586.909238853364	1
0	18601	1586.917142481941	0
0	18603	1586.917142481941	1
0	18604	1586.950743028665	0
0	18606	1586.950743028665	1
0	18607	1587.035022934931	0
0	18611	1587.079308349068	1
0	18612	1587.179904569822	0
0	18624	1587.448379580884	1
0	18625	1587.465475880701	0
0	18629	1587.536743222791	1
0	18630	1587.704776988673	0
0	18632	1587.704776988673	1
0	18633	1587.790296272783	0
0	18635	1587.790296272783	1
0	18636	1588.14638210116	0
0	18655	1589.513032574101	1
0	18656	1589.713374579913	0
0	18658	1589.713374579913	1
0	18659	1589.77659595838	0
0	18661	1589.77659595838	1
0	18662	1589.781123587614	0
0	18671	1590.074573637524	1
0	18672	1590.084238087625	0
0	18674	1590.084238087625	1
0	18675	1590.10470078499	0
0	18702	1592.112282829187	1
0	18703	1592.132636397742	0
0	18705	1592.132636397742	1
0	18706	1592.172697805614	0
0	18708	1592.172697805614	1
0	18709	1592.271726171259	0
0	18795	1604.525342428517	1
0	18796	1604.883699642415	0
0	18821	1606.866786882714	1
0	18822	1606.981470134992	0
0	18860	1611.875238675946	1
0	18861	1611.909526301831	0
0	18875	1612.817692462544	1
0	18877	1612.82962190686	2
0	18879	1612.849904282358	3
0	18880	1612.937376827385	2
0	18882	1612.937376827385	3
0	18883	1612.993574344482	2
0	18886	1613.031586214961	1
0	18888	1613.031586214961	2
0	18889	1613.114494483563	1
0	18891	1613.114494483563	2
0	18892	1613.155147928255	1
0	18895	1613.37039271127	0
0	18899	1613.378246052835	1
0	18900	1613.379219944983	0
0	18965	1619.047963099417	1
0	18966	1619.150031720498	0
0	19003	1622.053757651194	1
0	19004	1622.079932772652	0
0	19006	1622.079932772652	1
0	19007	1622.11982887001	0
0	19009	1622.11982887001	1
0	19010	1622.182837129822	0
0	19132	1635.576810073871	1
0	19133	1635.604573011647	0
0	19153	1638.655508515766	1
0	19154	1638.720937241006	0
0	19177	1640.708817293	1
0	19179	1640.825668732826	2
0	19180	1640.839593254194	1
0	19183	1641.052920636125	0
0	19185	1641.052920636125	1
0	19186	1641.099393532141	0
0	19188	1641.099393532141	1
0	19189	1641.124453336534	0
0	19269	1646.246041896623	1
0	19271	1646.334361584265	2
0	19272	1646.425175729034	1
0	19274	1646.425175729034	2
0	19275	1646.57050700763	1
0	19277	1646.57050700763	2
0	19278	1646.632297300229	1
0	19281	1646.801663120156	0
0	19309	1648.605897554724	1
0	19310	1648.706526735395	0
0	19351	1653.471381908567	1
0	19352	1653.559477966254	0
0	19369	1654.706030880952	1
0	19370	1654.73261317417	0
0	19377	1654.783303278738	1
0	19378	1654.859166620408	0
0	19395	1655.487335276129	1
0	19396	1655.715776697689	0
0	19398	1655.715776697689	1
0	19399	1655.736428368931	0
0	19401	1655.736428368931	1
0	19402	1655.805477294428	0
0	19406	1655.881887997212	1
0	19407	1656.067896901042	0
0	19411	1656.169274548756	1
0	19412	1656.190564991899	0
0	19414	1656.190564991899	1
0	19416	1656.252717132227	2
0	19417	1656.417759232757	1
0	19419	1656.417759232757	2
0	19420	1656.712627859487	1
0	19423	1656.979749648148	0
0	19425	1656.979749648148	1
0	19426	1657.015236424737	0
0	19474	1661.957867660554	1
0	19475	1661.973356570816	0
0	19505	1664.980332318211	1
0	19506	1665.018344888194	0
0	19508	1665.018344888194	1
0	19509	1665.111626653885	0
0	19511	1665.111626653885	1
0	19512	1665.390436658996	0
0	19516	1665.569563699354	1
0	19517	1665.60312086522	0
0	19542	1667.882393075635	1
0	19543	1668.085339082278	0
0	19555	1669.184302721218	1
0	19556	1669.317119745384	0
0	19594	1673.208009097684	1
0	19595	1673.454313304052	0
0	19597	1673.454313304052	1
0	19598	1673.5041640182	0
0	19600	1673.5041640182	1
0	19602	1673.588230500049	2
0	19604	1673.600243585629	3
0	19605	1673.774280607045	2
0	19608	1673.802477134505	1
0	19611	1673.872922289507	0
0	19615	1673.954251963452	1
0	19616	1673.957077254594	0
0	19618	1673.957077254594	1
0	19619	1674.031261042571	0
0	19621	1674.031261042571	1
0	19622	1674.102290986182	0
0	19655	1677.16381246061	1
0	19656	1677.361647533716	0
0	19709	1683.861688830287	1
0	19710	1683.874288500234	0
0	19730	1685.100190398718	1
0	19731	1685.1201292349	0
0	19733	1685.1201292349	1
0	19734	1685.14743187839	0
0	19816	1695.171096977515	1
0	19817	1695.203989437814	0
0	19819	1695.203989437814	1
0	19821	1695.340697248196	2
0	19822	1695.617184022543	1
0	19825	1695.761049613403	0
0	19869	1701.596786837279	1
0	19870	1701.780148973435	0
0	19877	1702.262719045434	1
0	19878	1702.391472137894	0
0	19890	1702.920825463848	1
0	19891	1702.933662718423	0
0	19906	1703.739638552386	1
0	19908	1703.742460541296	2
0	19909	1703.921070928526	1
0	19913	1703.958364176838	2
0	19915	1704.011475881866	3
0	19916	1704.03314596941	2
0	19918	1704.03314596941	3
0	19919	1704.101894701977	2
0	19921	1704.101894701977	3
0	19922	1704.124583138152	2
0	19924	1704.124583138152	3
0	19926	1704.158372458027	4
0	19927	1704.213967473187	3
0	19930	1704.21906697841	2
0	19933	1704.334246885869	1
0	19937	1704.355908036491	2
0	19938	1704.473715720481	1
0	19941	1704.521483534629	0
0	19945	1704.553061552213	1
0	19946	1704.637669579218	0
0	19948	1704.637669579218	1
0	19949	1704.674787402108	0
0	19958	1705.678315842489	1
0	19959	1705.684636230405	0
0	19961	1705.684636230405	1
0	19962	1705.744657652015	0
0	19964	1705.744657652015	1
0	19965	1705.749908105347	0
0	20003	1708.389750853386	1
0	20004	1708.574080406452	0
0	20045	1711.381104195934	1
0	20046	1711.487758570729	0
0	20050	1711.531216147291	1
0	20051	1711.58365710023	0
0	20123	1720.210559021023	1
0	20124	1720.443320988514	0
0	20160	1725.316494662075	1
0	20161	1725.338752472997	0
0	20165	1725.414846894615	1
0	20166	1725.563380744664	0
0	20220	1730.247136120037	1
0	20221	1730.335969696786	0
0	20223	1730.335969696786	1
0	20224	1730.345921687991	0
0	20226	1730.345921687991	1
0	20227	1730.493220371426	0
0	20247	1731.921183901295	1
0	20248	1732.129111100726	0
0	20252	1732.266331861709	1
0	20253	1732.292572469283	0
0	20255	1732.292572469283	1
0	20256	1732.354523873911	0
0	20258	1732.354523873911	1
0	20259	1732.448129437734	0
0	20297	1736.243176260745	1
0	20298	1736.272437251254	0
0	20302	1736.442774521432	1
0	20303	1736.554996960594	0
0	20310	1737.188641142101	1
0	20311	1737.732264735182	0
0	20381	1740.897836277138	1
0	20382	1741.081095825178	0
0	20384	1741.081095825178	1
0	20385	1741.089609064789	0
0	20389	1741.091750884583	1
0	20390	1741.16682897855	0
0	20402	1742.269723668132	1
0	20403	1742.28734285496	0
0	20405	1742.28734285496	1
0	20406	1742.305478961456	0
0	20408	1742.305478961456	1
0	20409	1742.334434974469	0
0	20442	1745.852536272975	1
0	20443	1745.862990950264	0
0	20492	1750.332323639833	1
0	20494	1750.42346172009	2
0	20495	1750.434003447073	1
0	20497	1750.434003447073	2
0	20498	1750.518791865691	1
0	20500	1750.518791865691	2
0	20501	1750.62575178078	1
0	20504	1750.673659862366	0
0	20555	1757.921329311705	1
0	20556	1758.09947254242	0
0	20558	1758.09947254242	1
0	20559	1758.181435922868	0
0	20561	1758.181435922868	1
0	20562	1758.195227921848	0
0	20571	1758.473992996505	1
0	20572	1758.478880428734	0
0	20574	1758.478880428734	1
0	20575	1758.500348950005	0
0	20577	1758.500348950005	1
0	20578	1758.51015991662	0
0	20611	1760.863133987526	1
0	20612	1760.873647442837	0
0	20614	1760.873647442837	1
0	20615	1761.452523462749	0
0	20617	1761.452523462749	1
0	20618	1761.57507937599	0
0	20630	1762.136960522871	1
0	20631	1762.149840453387	0
0	20666	1767.459776171071	1
0	20668	1767.5073266322	2
0	20669	1767.647510267491	1
0	20672	1767.803863747818	0
0	20674	1767.803863747818	1
0	20675	1767.833376276799	0
0	20677	1767.833376276799	1
0	20679	1767.884536945807	2
0	20681	1767.905009556142	3
0	20682	1768.26440881808	2
0	20685	1768.327780057951	1
0	20688	1768.357108953097	0
0	20690	1768.357108953097	1
0	20691	1768.365909114481	0
0	20693	1768.365909114481	1
0	20695	1768.414549797038	2
0	20696	1768.421152370166	1
0	20699	1768.499561974363	0
0	20708	1769.316797867318	1
0	20709	1769.362141147853	0
0	20711	1769.362141147853	1
0	20712	1769.364426499793	0
0	20714	1769.364426499793	1
0	20715	1769.367656316671	0
0	20724	1769.982928465718	1
0	20725	1770.05800969527	0
0	20727	1770.05800969527	1
0	20728	1770.19960530169	0
0	20745	1770.700649419847	1
0	20746	1770.800052832951	0
0	20748	1770.800052832951	1
0	20750	1770.83675032092	2
0	20751	1770.86776697378	1
0	20753	1770.86776697378	2
0	20755	1770.893417265117	3
0	20756	1770.958367628175	2
0	20759	1770.962061833774	1
0	20761	1770.962061833774	2
0	20762	1771.082221401271	1
0	20765	1771.112333361128	0
0	20767	1771.112333361128	1
0	20768	1771.159269842284	0
0	20772	1771.281554248636	1
0	20773	1771.314876207759	0
0	20780	1771.337523209651	1
0	20781	1771.368783843913	0
0	20825	1776.589213900756	1
0	20826	1776.605944329551	0
0	20838	1777.018129356541	1
0	20839	1777.018954958619	0
0	20841	1777.018954958619	1
0	20842	1777.03642130134	0
0	20861	1782.002560908928	1
0	20862	1782.065630634812	0
0	20864	1782.065630634812	1
0	20865	1782.372457318017	0
0	20867	1782.372457318017	1
0	20868	1782.392813340777	0
0	20888	1785.842293338323	1
0	20890	1785.977213324246	2
0	20891	1786.221746412243	1
0	20894	1786.799374959239	0
0	20896	1786.799374959239	1
0	20898	1786.941528936371	2
0	20900	1786.993407107899	3
0	20901	1787.022584088518	2
0	20903	1787.022584088518	3
0	20904	1787.144824107513	2
0	20907	1787.264388478375	1
0	20909	1787.264388478375	2
0	20910	1787.282250753045	1
0	20912	1787.282250753045	2
0	20913	1787.286335731519	1
0	20916	1787.359328819251	0
0	20956	1790.324466279068	1
0	20957	1790.388149513698	0
0	20959	1790.388149513698	1
0	20960	1790.644570964506	0
0	21000	1797.420551135217	1
0	21002	1797.543540469183	2
0	21003	1797.548156890163	1
0	21005	1797.548156890163	2
0	21006	1797.613666750277	1
0	21009	1797.634132953857	0
0	21047	1802.815011322895	1
0	21049	1802.828192778445	2
0	21050	1802.918526998488	1
0	21053	1802.944179147453	0
0	21073	1804.088159128922	1
0	21075	1804.136444094695	2
0	21076	1804.147653832101	1
0	21079	1804.18135344559	0
0	21081	1804.18135344559	1
0	21082	1804.282134151136	0
0	21084	1804.282134151136	1
0	21085	1804.611493094093	0
0	21163	1812.629848838796	1
0	21164	1812.764570214421	0
0	21168	1812.77195393921	1
0	21170	1812.786997014149	2
0	21172	1812.854578485315	3
0	21173	1812.915018153706	2
0	21175	1812.915018153706	3
0	21176	1813.208765465809	2
0	21178	1813.208765465809	3
0	21179	1813.214954071913	2
0	21181	1813.214954071913	3
0	21182	1813.293364584778	2
0	21184	1813.293364584778	3
0	21185	1813.515501457821	2
0	21188	1813.594391070936	1
0	21191	1813.612025660696	0
0	21248	1821.098701640819	1
0	21249	1821.2173702408	0
0	21311	1826.384389765357	1
0	21312	1826.592872502863	0
0	21314	1826.592872502863	1
0	21315	1826.618897433838	0
0	21317	1826.618897433838	1
0	21319	1826.648480275781	2
0	21320	1826.674193846902	1
0	21323	1826.733767742458	0
0	21335	1827.270459033222	1
0	21336	1827.306904938966	0
0	21368	1829.493676528857	1
0	21369	1829.570506980516	0
0	21371	1829.570506980516	1
0	21372	1829.583929336418	0
0	21374	1829.583929336418	1
0	21375	1829.752080626202	0
0	21426	1833.108015381683	1
0	21427	1833.287223332228	0
0	21431	1833.313749086054	1
0	21432	1833.360523450602	0
0	21434	1833.360523450602	1
0	21435	1833.463112189633	0
[...]
4	37947	3235.380271794295	5409
4	37952	3235.753374721374	5410
4	37957	3236.199087835435	5411
4	37970	3236.616280770057	5412
4	37973	3236.734727071305	5413
4	37978	3237.163809054008	5414
4	37983	3237.666242444999	5415
4	37991	3237.701020763601	5416
4	37996	3237.915633304887	5417
4	38004	3238.297787775044	5418
4	38012	3238.535803476395	5419
4	38020	3238.980172863961	5420
4	38028	3240.278662351606	5421
4	38033	3240.372911321183	5422
4	38041	3240.634696109754	5423
4	38054	3241.798844271093	5424
4	38057	3241.850086393795	5425
4	38065	3242.512781237444	5426
4	38070	3244.383124265916	5427
4	38082	3245.513457519342	5428
4	38085	3245.594683683617	5429
4	38090	3245.797013438338	5430
4	38095	3245.997886625907	5431
4	38098	3246.051022466624	5432
4	38106	3246.530395628514	5433
4	38113	3246.698519709028	5434
4	38121	3246.927105202318	5435
4	38124	3246.964909181089	5436
4	38129	3248.610627675098	5437
4	38137	3248.695468549383	5438
4	38147	3249.832114956207	5439
4	38150	3249.956858581789	5440
4	38158	3252.44129746219	5441
4	38166	3252.989951079624	5442
4	38171	3254.010922677104	5443
4	38176	3254.472688466265	5444
4	38189	3254.678537767258	5445
4	38192	3254.800837584797	5446
4	38205	3255.261516532592	5447
4	38208	3255.336620342563	5448
4	38216	3255.76670580318	5449
4	38224	3256.653721221579	5450
4	38232	3257.274818795393	5451
4	38237	3257.452599665415	5452
4	38247	3258.258198219488	5453
4	38252	3258.325986414038	5454
4	38258	3258.367763634079	5455
4	38266	3259.439536955435	5456
4	38276	3260.18792055593	5457
4	38282	3260.464255026886	5458
4	38290	3261.525868285903	5459
4	38295	3261.669729500132	5460
4	38303	3262.861981209928	5461
4	38308	3264.544247784099	5462
4	38315	3265.580197210253	5463
4	38320	3265.658021960357	5464
4	38326	3265.814321466695	5465
4	38331	3266.089883752201	5466
4	38339	3266.538836997854	5467
4	38347	3267.538764859612	5468
4	38355	3268.073524597612	5469
4	38360	3268.621770842629	5470
4	38365	3269.15237755666	5471
4	38370	3270.20312120146	5472
4	38375	3270.232969340262	5473
4	38383	3270.98158173491	5474
4	38388	3271.476429483942	5475
4	38395	3271.877085481934	5476
4	38398	3271.911699337229	5477
4	38408	3272.887981343726	5478
4	38413	3273.221779652807	5479
4	38416	3273.317242055523	5480
4	38424	3274.633882979392	5481
4	38429	3274.978011350376	5482
4	38439	3275.338993931322	5483
4	38444	3275.493795906204	5484
4	38447	3275.526144186057	5485
4	38452	3276.191183799555	5486
4	38457	3276.49007022324	5487
4	38470	3277.388496554614	5488
4	38473	3277.391336571477	5489
4	38480	3278.718998599445	5490
4	38486	3278.789664185091	5491
4	38491	3279.500510812546	5492
4	38499	3279.714975967593	5493
4	38509	3280.113959008635	5494
4	38512	3280.20339799918	5495
4	38519	3280.967259279761	5496
4	38525	3281.001992217449	5497
4	38530	3281.175594462123	5498
4	38538	3281.329688499093	5499
4	38546	3281.80820944673	5500
4	38554	3282.731069190951	5501
4	38562	3283.041383210782	5502
4	38570	3283.830823086877	5503
4	38592	3284.670755316139	5504
4	38599	3284.914424098873	5505
4	38602	3284.950197185712	5506
4	38614	3285.40165734663	5507
4	38617	3285.487455995561	5508
4	38620	3285.57685551393	5509
4	38623	3285.806333916132	5510
4	38633	3286.215302698526	5511
4	38636	3286.329952340398	5512
4	38644	3287.149593212832	5513
4	38652	3287.665259676162	5514
4	38657	3289.102135721603	5515
4	38670	3289.619515062221	5516
4	38673	3289.637596925727	5517
4	38681	3290.671514517989	5518
4	38689	3291.533928806563	5519
4	38697	3292.041326362254	5520
4	38705	3293.674598247773	5521
4	38713	3294.087980960684	5522
4	38721	3295.376371958063	5523
4	38729	3296.244353927443	5524
4	38737	3298.170902708189	5525
4	38745	3299.387594811592	5526
4	38753	3301.152405850957	5527
4	38760	3301.513531326814	5528
4	38766	3301.933052938431	5529
4	38778	3304.065729565203	5530
4	38784	3304.13688187417	5531
4	38787	3304.173972163684	5532
4	38795	3304.521044971723	5533
4	38803	3305.326259606314	5534
4	38813	3306.560853723139	5535
4	38819	3306.771846778916	5536
4	38827	3307.061580115824	5537
4	38835	3307.890999817447	5538
4	38840	3308.278996419596	5539
4	38848	3308.688952129905	5540
4	38853	3309.149834118846	5541
4	38861	3309.773486967931	5542
4	38869	3310.516385098656	5543
4	38877	3311.096059527888	5544
4	38885	3311.623728070874	5545
4	38893	3312.050805073991	5546
4	38901	3312.476988127493	5547
4	38909	3313.059487545476	5548
4	38914	3313.400085480364	5549
4	38922	3313.506935451286	5550
4	38930	3314.248199098739	5551
4	38938	3314.795031481614	5552
4	38943	3314.940582957164	5553
4	38951	3315.581478402521	5554
4	38961	3316.332977330911	5555
4	38967	3316.405884270844	5556
4	38975	3316.819321065648	5557
4	38980	3317.365539701117	5558
4	38988	3317.570040645131	5559
4	38996	3318.53785107739	5560
4	39001	3320.109907212642	5561
4	39009	3320.766621858763	5562
4	39014	3320.975160023788	5563
4	39019	3321.095217900862	5564
4	39027	3321.693368764868	5565
4	39035	3321.94201481788	5566
4	39042	3323.155228203657	5567
4	39050	3323.261219526507	5568
4	39061	3323.950579643734	5569
4	39066	3324.091873180901	5570
4	39069	3324.103017194285	5571
4	39079	3324.675431848612	5572
4	39085	3324.817405914124	5573
4	39093	3324.941477503024	5574
4	39101	3325.629315423868	5575
4	39109	3327.11111503035	5576
4	39117	3327.231185598277	5577
4	39124	3329.079423152462	5578
4	39142	3329.422718437277	5579
4	39145	3329.457595094305	5580
4	39153	3329.548018871123	5581
4	39163	3329.689532804	5582
4	39166	3329.747521929363	5583
4	39169	3329.772854525291	5584
4	39175	3329.840100625205	5585
4	39180	3330.023342115393	5586
4	39188	3330.359304903624	5587
4	39193	3331.232336884855	5588
4	39201	3331.840914281633	5589
4	39209	3332.112357644942	5590
4	39217	3332.251750420514	5591
4	39222	3332.459221096372	5592
4	39227	3333.044606862129	5593
4	39232	3333.137827778165	5594
4	39237	3334.142298908385	5595
4	39242	3335.909616998978	5596
4	39250	3336.532241880065	5597
4	39258	3337.575776055473	5598
4	39263	3337.94378992486	5599
4	39271	3338.375903217907	5600
4	39281	3339.395015053504	5601
4	39284	3339.513362390604	5602
4	39292	3339.82587057218	5603
4	39300	3340.572389936223	5604
4	39308	3340.663500265424	5605
4	39316	3343.174938414954	5606
4	39324	3344.149949435432	5607
4	39331	3344.913295152062	5608
4	39337	3344.943992852417	5609
4	39345	3345.266173329875	5610
4	39353	3345.617441117496	5611
4	39361	3345.712761152926	5612
4	39369	3346.316409108304	5613
4	39374	3348.234325816718	5614
4	39379	3349.449037072272	5615
4	39387	3349.904710358183	5616
4	39392	3352.932927558104	5617
4	39400	3354.106986564496	5618
4	39413	3355.228615189181	5619
4	39418	3355.463469157584	5620
4	39421	3355.586689417221	5621
4	39429	3355.879325390605	5622
4	39439	3356.6551908497	5623
4	39442	3356.656854966379	5624
4	39450	3357.851370859534	5625
4	39455	3358.097908497682	5626
4	39460	3358.503082601501	5627
4	39468	3359.167738773669	5628
4	39476	3359.223036489802	5629
4	39489	3359.404133243425	5630
4	39492	3359.410796226408	5631
4	39500	3359.524987764837	5632
4	39508	3359.771935582324	5633
4	39516	3360.149566024269	5634
4	39524	3361.312163403262	5635
4	39532	3361.943178625791	5636
4	39537	3362.150449970621	5637
4	39545	3362.446093612767	5638
4	39553	3363.693834732331	5639
4	39566	3364.404361335493	5640
4	39569	3364.467346246317	5641
4	39577	3365.606712104251	5642
4	39585	3366.050743106506	5643
4	39593	3366.806093526939	5644
4	39601	3368.636752105778	5645
4	39609	3369.01604753203	5646
4	39614	3369.43838656708	5647
4	39622	3369.937366718507	5648
4	39632	3370.338059786003	5649
4	39638	3370.529852565613	5650
4	39646	3371.120221424996	5651
4	39659	3371.380246846026	5652
4	39664	3371.510412128138	5653
4	39670	3371.558294098416	5654
4	39678	3371.60553009394	5655
4	39686	3372.205228594951	5656
4	39694	3372.85885427223	5657
4	39704	3373.259611134449	5658
4	39710	3373.760644578003	5659
4	39725	3375.187477730848	5660
4	39730	3375.304552832455	5661
4	39733	3375.38552081555	5662
4	39741	3375.774031943626	5663
4	39744	3375.794115686946	5664
4	39754	3376.333316197505	5665
4	39760	3376.356921986204	5666
4	39768	3376.415597918689	5667
4	39776	3377.002286180338	5668
4	39789	3377.691808961432	5669
4	39792	3377.906487032271	5670
4	39800	3378.719904625363	5671
4	39808	3379.509384229885	5672
4	39816	3381.129128632597	5673
4	39824	3381.760599767482	5674
4	39832	3381.877006290654	5675
4	39840	3382.855676722298	5676
4	39848	3384.419241571417	5677
4	39853	3384.727284497235	5678
4	39861	3385.188971575752	5679
4	39866	3385.251472752982	5680
4	39874	3385.393838112741	5681
4	39882	3385.961719961611	5682
4	39890	3387.564055261493	5683
4	39903	3388.054246792528	5684
4	39906	3388.274903891447	5685
4	39914	3389.103026200855	5686
4	39924	3389.561397663175	5687
4	39927	3389.600709899489	5688
4	39935	3390.010109796512	5689
4	39943	3390.10366143902	5690
4	39948	3390.193178510149	5691
4	39953	3390.510026297334	5692
4	39963	3391.073791177909	5693
4	39966	3391.075891919866	5694
4	39974	3391.934778066203	5695
4	39984	3392.208472607442	5696
4	39990	3392.521950303541	5697
4	39998	3393.483256021422	5698
4	40011	3394.607353544382	5699
4	40016	3394.799858270668	5700
4	40022	3394.868247640317	5701
4	40030	3396.679620258409	5702
4	40040	3397.512878466442	5703
4	40046	3397.559195984231	5704
4	40054	3399.028047188338	5705
4	40059	3399.258604306952	5706
4	40066	3400.599808195846	5707
4	40069	3400.748831246879	5708
4	40082	3401.215467670343	5709
4	40085	3401.253123451115	5710
4	40093	3401.681242966563	5711
4	40101	3402.129242772826	5712
4	40106	3402.810617579449	5713
4	40114	3403.150260755809	5714
4	40122	3403.482131559208	5715
4	40127	3403.947443455762	5716
4	40132	3405.041586800236	5717
4	40137	3405.164256434196	5718
4	40147	3406.789514487961	5719
4	40153	3406.835008209194	5720
4	40161	3407.267660685649	5721
4	40169	3408.402506302445	5722
4	40174	3409.559513969523	5723
4	40184	3410.194577233627	5724
4	40190	3410.323131281256	5725
4	40198	3410.888371291585	5726
4	40203	3411.208961170422	5727
4	40211	3411.315383234398	5728
4	40219	3411.945484486448	5729
4	40232	3412.727183094968	5730
4	40235	3412.967408640585	5731
4	40240	3413.163089980824	5732
4	40248	3413.944348454338	5733
4	40253	3414.260450179158	5734
4	40261	3414.509652605762	5735
4	40269	3415.102531402524	5736
4	40277	3415.258174566341	5737
4	40282	3415.566741366955	5738
4	40290	3416.119551535914	5739
4	40298	3416.376090448224	5740
4	40310	3416.854477744638	5741
4	40319	3417.098766712102	5742
4	40322	3417.129807687918	5743
4	40327	3417.648174559203	5744
4	40335	3418.102185929526	5745
4	40343	3418.767874106895	5746
4	40351	3419.163020587804	5747
4	40356	3419.399047899441	5748
4	40364	3420.704739328769	5749
4	40372	3421.650610185447	5750
4	40377	3423.09046881791	5751
4	40395	3424.58704707253	5752
4	40398	3424.669230722331	5753
4	40401	3424.746761564362	5754
4	40409	3426.634211878768	5755
4	40417	3427.149116725981	5756
4	40429	3428.543350834811	5757
4	40432	3428.556255305737	5758
4	40438	3428.738092790293	5759
4	40448	3428.912882306294	5760
4	40454	3429.449183906244	5761
4	40462	3430.251862996854	5762
4	40470	3431.173364034752	5763
4	40478	3431.71959116175	5764
4	40483	3431.819522287535	5765
4	40493	3432.893540423261	5766
4	40496	3432.936073098842	5767
4	40504	3433.176980424416	5768
4	40509	3433.826991136943	5769
4	40514	3434.601295974418	5770
4	40519	3435.33927571305	5771
4	40527	3436.761535646562	5772
4	40535	3437.191929855937	5773
4	40543	3437.885720701392	5774
4	40550	3438.361081701931	5775
4	40561	3438.497594211462	5776
4	40564	3438.592039382003	5777
4	40569	3439.112450933967	5778
4	40577	3439.549426348057	5779
4	40585	3439.974548016404	5780
4	40593	3440.514856232776	5781
4	40601	3440.90157423184	5782
4	40609	3442.039586581914	5783
4	40617	3443.217713505091	5784
4	40627	3443.517108267087	5785
4	40630	3443.569069119094	5786
4	40638	3443.791977581086	5787
4	40643	3443.84695195386	5788
4	40655	3444.091067407603	5789
4	40658	3444.102112917947	5790
4	40664	3444.221224997322	5791
4	40672	3445.006072065394	5792
4	40677	3445.212364487453	5793
4	40682	3447.962595729174	5794
4	40690	3449.004978746058	5795
4	40698	3449.645091317258	5796
4	40708	3449.910236447557	5797
4	40716	3450.172940915566	5798
4	40722	3450.269726879425	5799
4	40730	3450.611658024161	5800
4	40743	3452.001534918975	5801
4	40746	3452.421459135908	5802
4	40751	3453.071042884264	5803
4	40759	3453.294977809267	5804
4	40767	3453.583692951346	5805
4	40775	3453.687696550986	5806
4	40780	3453.830170006774	5807
4	40790	3454.034462901414	5808
4	40796	3454.174062931801	5809
4	40804	3454.42601473797	5810
4	40812	3455.671680983215	5811
4	40825	3457.211639002559	5812
4	40828	3457.222945291945	5813
4	40833	3457.293733391412	5814
4	40841	3457.623399429778	5815
4	40849	3457.84767044644	5816
4	40864	3458.868948455966	5817
4	40870	3459.087437138382	5818
4	40873	3459.096819287948	5819
4	40881	3459.320507064715	5820
4	40886	3459.876535402647	5821
4	40894	3460.216635677511	5822
4	40902	3461.426693896614	5823
4	40907	3461.662785259043	5824
4	40915	3462.543990117434	5825
4	40923	3463.603776839357	5826
4	40928	3464.414991497065	5827
4	40936	3464.633307048974	5828
4	40944	3464.711908849354	5829
4	40952	3466.280624682315	5830
4	40962	3468.000451428134	5831
4	40968	3468.176926152173	5832
4	40973	3468.469545228546	5833
4	40981	3468.851573510786	5834
4	40994	3470.336694294889	5835
4	40997	3470.576648506496	5836
4	41010	3470.840585324467	5837
4	41013	3470.846575259336	5838
4	41021	3471.276943826539	5839
4	41029	3473.401376184367	5840
4	41037	3474.463308160306	5841
4	41044	3474.819854651149	5842
4	41047	3474.845291624165	5843
4	41055	3475.080905735817	5844
4	41063	3475.171667603229	5845
4	41068	3475.335867575054	5846
4	41073	3475.594952396537	5847
4	41081	3475.843828830913	5848
4	41089	3476.371474892674	5849
4	41097	3476.737640552627	5850
4	41104	3477.261747973199	5851
4	41107	3477.329545089838	5852
4	41115	3477.642669532718	5853
4	41123	3478.130241509227	5854
4	41128	3478.317637002343	5855
4	41133	3479.82806456415	5856
4	41143	3480.212313165344	5857
4	41149	3480.474599599458	5858
4	41157	3481.546259119103	5859
4	41165	3482.407925285119	5860
4	41170	3482.76418774442	5861
4	41178	3484.772210247234	5862
4	41186	3485.549904159624	5863
4	41194	3485.881881154389	5864
4	41202	3486.000895097517	5865
4	41210	3486.438498870601	5866
4	41218	3486.855989001987	5867
4	41226	3488.280573767699	5868
4	41235	3489.026512880706	5869
4	41244	3489.199652901293	5870
4	41247	3489.274221499229	5871
4	41255	3489.901082123205	5872
4	41263	3491.446552289331	5873
4	41276	3491.958361585787	5874
4	41283	3492.304856032309	5875
4	41286	3492.317539961559	5876
4	41292	3492.765159824884	5877
4	41297	3494.811539147563	5878
4	41305	3494.947721171372	5879
4	41312	3495.082499742451	5880
4	41318	3495.298075142515	5881
4	41323	3498.458598217769	5882
4	41330	3500.544986409128	5883
4	41333	3500.555958575901	5884
4	41341	3500.63797184541	5885
4	41349	3501.377273037249	5886
4	41357	3502.099062105982	5887
4	41362	3502.16511249749	5888
4	41375	3502.468876025795	5889
4	41378	3502.500638793462	5890
4	41386	3504.497025422603	5891
4	41393	3507.379471809863	5892
4	41399	3507.802959558289	5893
4	41407	3508.288986341711	5894
4	41412	3508.597179808995	5895
4	41420	3509.523776336834	5896
4	41425	3511.404894596148	5897
4	41433	3512.261802412401	5898
4	41440	3513.259198821432	5899
4	41443	3513.31182369009	5900
4	41455	3514.248704196158	5901
4	41458	3514.403049484687	5902
4	41463	3514.442259206141	5903
4	41469	3514.53395139956	5904
4	41477	3515.652797361019	5905
4	41482	3516.007724768737	5906
4	41490	3516.926918344438	5907
4	41495	3517.451887317343	5908
4	41500	3518.719674240355	5909
4	41510	3519.030631814237	5910
4	41516	3519.142675532461	5911
4	41526	3519.913323524291	5912
4	41532	3519.982064754847	5913
4	41540	3520.162145657171	5914
4	41545	3520.650823897224	5915
4	41550	3520.942117465939	5916
4	41555	3521.065125238655	5917
4	41562	3523.021291753341	5918
4	41567	3523.282326333654	5919
4	41573	3523.339248910529	5920
4	41581	3523.700444835401	5921
4	41589	3524.168166546455	5922
4	41596	3524.675950425506	5923
4	41599	3524.827836833106	5924
4	41607	3525.974059572284	5925
4	41617	3526.384021707749	5926
4	41620	3526.440466872769	5927
4	41627	3526.818484455352	5928
4	41630	3527.158962425625	5929
4	41650	3527.574819735041	5930
4	41653	3527.620622600708	5931
4	41659	3528.154875455338	5932
4	41662	3528.290093718261	5933
4	41677	3528.980216618316	5934
4	41680	3529.107030700691	5935
4	41683	3529.174800824875	5936
4	41688	3529.419027536693	5937
4	41696	3531.169031421068	5938
4	41704	3531.340982416354	5939
4	41712	3531.650186559997	5940
4	41720	3532.95437785344	5941
4	41733	3533.571055071275	5942
4	41736	3533.613750999597	5943
4	41749	3534.30909331013	5944
4	41752	3534.45153192918	5945
4	41757	3534.794107027238	5946
4	41762	3536.22418891771	5947
4	41767	3537.35208954991	5948
4	41776	3537.767204247937	5949
4	41782	3537.827772727118	5950
4	41785	3537.953968793785	5951
4	41793	3538.458630058697	5952
4	41801	3539.157029842594	5953
4	41806	3539.451877191223	5954
4	41816	3542.107701769754	5955
4	41822	3542.287131002188	5956
4	41827	3544.059965995616	5957
4	41835	3546.143779147902	5958
4	41840	3546.381912796704	5959
4	41848	3547.205722659244	5960
4	41861	3547.635608460327	5961
4	41864	3547.659222645853	5962
4	41869	3547.758021574322	5963
4	41882	3549.586258258157	5964
4	41885	3549.708415117758	5965
4	41890	3550.515387364836	5966
4	41895	3552.884043917899	5967
4	41908	3553.806955551363	5968
4	41911	3553.849647127904	5969
4	41916	3554.79813184909	5970
4	41924	3555.118371145303	5971
4	41934	3555.605480127152	5972
4	41942	3555.834110939866	5973
4	41952	3556.056203955012	5974
4	41955	3556.203972714721	5975
4	41960	3556.274455928446	5976
4	41966	3556.33220216906	5977
4	41976	3558.004075250816	5978
4	41984	3558.174768828493	5979
4	41987	3558.201375021226	5980
4	41992	3558.393403575614	5981
4	42000	3558.524582015556	5982
4	42008	3559.213452944096	5983
4	42013	3559.786041895008	5984
4	42018	3560.715198311393	5985
4	42026	3561.0288296294	5986
4	42031	3561.160793067373	5987
4	42039	3561.402631003821	5988
4	42052	3562.175809491372	5989
4	42057	3562.28888423192	5990
4	42063	3562.381493213477	5991
4	42068	3562.494932716879	5992
4	42076	3563.257154301215	5993
4	42081	3563.696411830488	5994
4	42089	3565.028863863111	5995
4	42094	3566.31415152135	5996
4	42099	3566.679682613083	5997
4	42107	3567.127813470523	5998
4	42115	3567.238135741222	5999
4	42120	3568.260096488824	6000
4	42128	3568.468623631771	6001
4	42138	3568.635176217029	6002
4	42146	3568.795211506441	6003
4	42149	3568.84332178035	6004
4	42157	3569.074061586446	6005
4	42165	3570.067840705024	6006
4	42173	3570.260884821741	6007
4	42181	3573.215622437733	6008
4	42186	3573.91984053482	6009
4	42194	3574.740340895643	6010
4	42199	3574.95158001944	6011
4	42204	3576.387126207443	6012
4	42212	3577.592819529205	6013
4	42220	3577.996084055763	6014
4	42228	3580.243011437893	6015
4	42236	3581.23758385981	6016
4	42244	3581.806755170827	6017
4	42252	3582.352023670432	6018
4	42260	3583.357753327434	6019
4	42268	3584.262234597054	6020
4	42276	3584.431934322599	6021
4	42281	3584.45028102757	6022
4	42289	3585.011633008706	6023
4	42294	3586.843150248375	6024
4	42304	3587.031209427865	6025
4	42314	3587.335584478968	6026
4	42328	3587.480042627167	6027
4	42333	3587.556701990187	6028
4	42338	3587.780597409752	6029
4	42354	3588.317823180708	6030
4	42357	3588.488790576393	6031
4	42362	3588.68585022572	6032
4	42365	3588.746837369265	6033
4	42368	3589.129585208279	6034
4	42376	3589.463518050767	6035
4	42384	3589.590854894217	6036
4	42392	3589.981474871155	6037
4	42400	3592.050407760085	6038
4	42405	3592.429881519046	6039
4	42415	3593.070969928095	6040
4	42420	3593.089318473643	6041
4	42426	3593.19390194783	6042
4	42434	3593.424513331541	6043
4	42439	3594.382688074291	6044
4	42447	3595.502467893354	6045
4	42452	3595.963402313149	6046
4	42457	3596.299204737344	6047
4	42465	3596.510227875868	6048
4	42470	3597.501677454831	6049
4	42477	3597.678698170045	6050
4	42480	3597.727214199066	6051
4	42485	3598.189161906705	6052
4	42493	3598.269912530071	6053
4	42498	3598.682474272256	6054
4	42506	3599.595883905197	6055

