version 2
run Net1-0-20250204-13:03:36-2553
attr configname Net1
attr datetime 20250204-13:03:36
attr experiment Net1
attr inifile omnetpp.ini
attr iterationvars ""
attr iterationvarsf ""
attr measurement ""
attr network Net
attr processid 2553
attr repetition 0
attr replication #0
attr resultdir results
attr runnumber 0
attr seedset 3
param **.source*.avgInterArrivalTime 4s
param **.queue*.avgServiceTime 2s

vector 0 Net.queue1 qlen:vector ETV
attr interpolationmode sample-hold
attr title "queue length, vector"
vector 1 Net.queue1 queueingTime:vector ETV
attr interpolationmode none
attr title "queueing time at dequeue, vector"
attr unit s
vector 2 Net.queue1 responseTime:vector ETV
attr interpolationmode none
attr title "response time at end of service, vector"
attr unit s
vector 3 Net.sink1 lifetime:vector ETV
attr interpolationmode none
attr title "lifetime of arrived msg, vector"
attr unit s
vector 4 Net.sink1 arrivedMsg:vector ETV
attr interpolationmode none
attr title "number of arrived msg, vector"
0	0	0	0
0	40	34.367027446096	0
0	66	50.607959370834	1
0	67	53.414247748196	0
0	70	53.881477713272	1
0	72	55.081859286641	2
0	74	57.227125012992	3
0	75	58.304884051244	2
0	78	58.560773191097	3
0	79	59.036490229372	2
0	81	60.066025804923	1
0	83	61.675399069253	0
0	86	63.286200717585	1
0	87	63.442174958271	0
0	94	66.291242656127	1
0	95	66.821216979685	0
0	98	69.437989682415	1
0	99	69.656087431432	0
0	110	77.967355252431	1
0	112	79.931259380581	2
0	113	81.434526961377	1
0	115	81.476186855115	0
0	142	129.42080008322	1
0	143	130.101711455299	0
0	166	144.356922153802	1
0	167	144.583301497174	0
0	170	145.61157872319	1
0	171	146.464589579544	0
0	186	160.849032909395	1
0	187	161.416034573065	0
0	190	162.182473266156	1
0	192	163.485269225635	2
0	193	164.750462674031	1
0	195	164.906818482052	0
0	202	166.830092209981	1
0	204	167.729565933704	2
0	205	168.769433698655	1
0	207	168.901221487543	0
0	210	170.616041072946	1
0	212	170.981123689034	2
0	213	172.579441441626	1
0	216	173.624506111931	2
0	217	173.760263238466	1
0	219	174.660164783162	0
0	222	175.423279050891	1
0	223	177.019595255858	0
0	242	197.080542288002	1
0	243	198.922547848845	0
0	254	206.555747235071	1
0	255	206.652665331928	0
0	266	210.742910834188	1
0	267	211.208725677207	0
0	270	211.85476422615	1
0	271	214.499090844643	0
0	294	243.784314444883	1
0	295	246.209015675963	0
0	302	247.693522730138	1
0	304	247.994840655061	2
0	306	248.882298260254	3
0	308	249.541141191737	4
0	310	249.963047032709	5
0	312	250.516850012891	6
0	313	252.6164248457	5
0	315	252.863511361948	4
0	317	253.25083163091	3
0	320	253.740122815006	4
0	321	253.900417579193	3
0	323	254.080268559638	2
0	326	254.572230482075	3
0	327	256.439808801974	2
0	329	258.630790777497	1
0	331	261.420573436518	0
0	334	266.726893553031	1
0	335	268.6930162198	0
0	366	306.123213666472	1
0	367	306.730581637967	0
0	378	323.287626183182	1
0	379	323.504854305219	0
0	390	338.939392588902	1
0	391	341.389532309496	0
0	394	342.158788729141	1
0	395	342.966130569221	0
0	398	343.033306638261	1
0	400	343.886437441964	2
0	401	346.486909364839	1
0	403	346.940403557858	0
0	410	355.207417527556	1
0	411	355.416372917555	0
0	426	380.651982165383	1
0	427	381.672099525773	0
0	442	402.709919097814	1
0	443	404.41376636298	0
0	446	405.139847892725	1
0	447	405.813124457488	0
0	450	406.123377255667	1
0	452	406.903610810382	2
0	454	407.20950967943	3
0	455	407.511499305987	2
0	457	407.768569649506	1
0	459	408.606946091564	0
0	470	420.83398388972	1
0	472	422.972592297574	2
0	474	423.174015339057	3
0	476	424.113733017262	4
0	478	429.36157083699	5
0	479	429.486666951362	4
0	481	430.066680524598	3
0	483	430.661354596643	2
0	485	431.285161385392	1
0	487	431.932862172835	0
0	490	433.573711564739	1
0	492	436.181565901935	2
0	493	436.493277450274	1
0	495	436.809666325442	0
0	498	437.46668961136	1
0	499	440.41627374891	0
0	502	441.69146628437	1
0	503	451.198532022134	0
0	514	456.805061690448	1
0	516	457.042921691298	2
0	518	457.388950317497	3
0	519	457.868030558124	2
0	521	458.145769522833	1
0	523	458.638588510512	0
0	530	473.348015915501	1
0	531	473.71359128326	0
0	534	480.615400282659	1
0	536	481.360880238902	2
0	538	482.567166309304	3
0	539	486.448089736615	2
0	541	486.791255990902	1
0	544	487.277496213932	2
0	545	488.063527253023	1
0	547	490.521640201517	0
0	550	496.314461984614	1
0	552	497.980698567357	2
0	554	498.24813570673	3
0	555	500.00952125258	2
0	557	500.840570095608	1
0	559	503.226965477325	0
0	566	507.606937969316	1
0	567	509.628983273107	0
0	570	513.011919643475	1
0	571	513.393077632893	0
0	598	538.579591556489	1
0	599	539.525166816694	0
0	602	540.086047560161	1
0	603	541.622374028739	0
0	606	542.262079788565	1
0	607	542.364390190809	0
0	614	551.318980416121	1
0	615	552.024263360823	0
0	630	582.303759758927	1
0	632	583.221109380412	2
0	634	584.321859546311	3
0	636	591.35971342889	4
0	637	592.720075970687	3
0	639	592.943999873691	2
0	641	593.291866725199	1
0	643	594.012367356795	0
0	670	629.374585833918	1
0	672	630.347713064408	2
0	673	634.264045889178	1
0	675	635.166256646848	0
0	678	637.477193966685	1
0	679	638.385705825312	0
0	686	646.532018230341	1
0	687	646.865771313011	0
0	702	653.599409137214	1
0	703	656.247668032711	0
0	730	691.615519214334	1
0	731	696.910080650053	0
0	750	716.064716819479	1
0	751	716.338744099248	0
0	758	722.948915954544	1
0	759	724.548828900644	0
0	766	726.537740137198	1
0	767	727.154171784208	0
0	782	751.962685968838	1
0	784	754.570057803225	2
0	786	754.827271108304	3
0	787	754.902355892423	2
0	789	755.798319765583	1
0	791	760.107765227358	0
0	794	763.452265254576	1
0	795	764.728411236032	0
0	802	766.097308042006	1
0	804	766.415629849956	2
0	805	766.480540259494	1
0	807	766.959325814181	0
0	818	770.637804153285	1
0	820	772.931141595466	2
0	822	775.686032188305	3
0	824	779.187701470476	4
0	825	779.727524213937	3
0	827	780.421976559583	2
0	829	781.558654024141	1
0	832	783.063437872054	2
0	833	783.476556223133	1
0	835	784.687971210252	0
0	838	784.929470475028	1
0	840	788.786529518538	2
0	842	789.470843840259	3
0	844	790.759984695301	4
0	845	792.421808068003	3
0	847	793.437258641616	2
0	849	795.227912694257	1
0	851	797.149726389441	0
0	854	797.172183572675	1
0	856	797.836823667101	2
0	858	798.847746418484	3
0	860	799.96119924264	4
0	861	800.257630023697	3
0	863	800.283305105806	2
0	865	800.346140307852	1
0	867	800.612338708692	0
0	874	802.57610018615	1
0	876	802.699221171459	2
0	877	803.215284407313	1
0	879	803.863334621985	0
0	882	805.175450005216	1
0	884	805.884884892737	2
0	885	809.555008355062	1
0	887	809.712636391086	0
0	894	816.779374563988	1
0	895	818.977563288512	0
0	910	827.151696943098	1
0	911	827.360796741374	0
0	914	829.466841110716	1
0	915	830.08462012939	0
0	926	835.539372500787	1
0	928	836.572968118285	2
0	929	838.116076252221	1
0	931	840.127979135499	0
0	938	844.545734323281	1
0	939	845.350378447143	0
0	942	846.658436775911	1
0	943	847.479576617063	0
0	950	858.941570862878	1
0	951	859.16846810807	0
0	970	871.715718746648	1
0	971	872.333793802532	0
0	974	873.875822731611	1
0	976	873.892925003064	2
0	977	874.08759777509	1
0	979	874.299603024749	0
0	982	875.025218332244	1
0	983	875.693605594522	0
0	994	881.573239313512	1
0	995	883.82825036053	0
0	1018	927.96048251253	1
0	1020	935.741983757793	2
0	1021	935.866653309042	1
0	1024	936.499456654531	2
0	1025	936.68013406575	1
0	1027	937.722819485886	0
0	1034	943.72247755126	1
0	1035	947.435045239417	0
0	1046	958.660456848374	1
0	1047	958.81190867821	0
0	1078	994.659102560076	1
0	1080	995.820139059961	2
0	1081	997.052099778954	1
0	1083	997.098684063361	0
0	1094	1007.124143426113	1
0	1095	1009.133671589138	0
0	1098	1012.143617504722	1
0	1099	1013.913403225116	0
0	1102	1014.284219601177	1
0	1103	1016.430371729283	0
0	1118	1027.133859139632	1
0	1120	1028.506553090493	2
0	1121	1029.88741263129	1
0	1123	1030.347848542956	0
0	1162	1083.280896343568	1
0	1163	1086.771757298537	0
0	1170	1089.785672962426	1
0	1172	1092.838544394971	2
0	1174	1093.379245880536	3
0	1175	1093.572070244457	2
0	1178	1093.682094992118	3
0	1179	1095.161668371798	2
0	1181	1097.166240167601	1
0	1184	1097.438566612728	2
0	1186	1100.141392298451	3
0	1187	1100.298908402498	2
0	1189	1100.387870124104	1
0	1191	1101.024244643692	0
0	1194	1104.634774122049	1
0	1195	1104.717620980277	0
0	1206	1127.470280615793	1
0	1208	1131.460415128998	2
0	1210	1134.901710137056	3
0	1211	1135.24521922873	2
0	1213	1136.938448339751	1
0	1215	1138.857448859942	0
0	1218	1139.108344484314	1
0	1219	1141.332899060121	0
0	1246	1164.159795545967	1
0	1247	1164.848295425304	0
0	1250	1166.421805086883	1
0	1252	1166.85274386348	2
0	1254	1167.445861826423	3
0	1256	1167.454373118352	4
0	1258	1168.395776346948	5
0	1260	1169.372414073156	6
0	1261	1171.65450674908	5
0	1263	1171.765546938735	4
0	1265	1172.125235110682	3
0	1268	1172.277116575603	4
0	1269	1173.029800080081	3
0	1271	1173.624033214206	2
0	1273	1174.674524212435	1
0	1276	1175.654934477564	2
0	1277	1176.652384083765	1
0	1279	1178.52202546711	0
0	1286	1185.270803735432	1
0	1287	1188.851321467218	0
0	1302	1204.842151490439	1
0	1303	1206.172714613831	0
0	1310	1210.013947152883	1
0	1311	1210.103811099412	0
0	1334	1252.77522471502	1
0	1335	1253.931925051695	0
0	1338	1254.218070372152	1
0	1339	1255.967632780345	0
0	1378	1293.685000785334	1
0	1379	1294.530361455883	0
0	1398	1327.662204220589	1
0	1400	1327.832229701313	2
0	1402	1328.346632863759	3
0	1404	1329.203105346201	4
0	1405	1331.50751116066	3
0	1407	1331.687893726819	2
0	1409	1332.483591158676	1
0	1411	1333.322757557651	0
0	1414	1334.384067297927	1
0	1415	1337.192376361904	0
0	1426	1343.08564686155	1
0	1428	1343.112513765925	2
0	1430	1345.105941258057	3
0	1431	1346.80918675678	2
0	1433	1348.361160910104	1
0	1435	1351.406791334003	0
0	1458	1395.975248461869	1
0	1459	1398.077362109301	0
0	1470	1402.337031316108	1
0	1471	1403.666529920035	0
0	1482	1406.127625403347	1
0	1483	1406.759231211713	0
0	1490	1411.192219354759	1
0	1492	1414.890521809543	2
0	1494	1418.756442928448	3
0	1495	1423.257371272542	2
0	1498	1423.544494550554	3
0	1499	1424.365375009193	2
0	1502	1424.925350510483	3
0	1503	1425.477597299842	2
0	1506	1426.306775955407	3
0	1507	1426.960107500117	2
0	1509	1428.979428543285	1
0	1511	1431.673522534177	0
0	1514	1431.941418072232	1
0	1516	1433.906975671578	2
0	1518	1434.568660033917	3
0	1519	1435.181607925795	2
0	1521	1435.860891482573	1
0	1523	1437.033274763186	0
0	1530	1444.04801946434	1
0	1531	1444.051396314056	0
0	1550	1473.694711558223	1
0	1551	1475.792214209923	0
0	1574	1498.704536982901	1
0	1575	1499.292819339603	0
0	1578	1500.5124617782	1
0	1579	1500.952227915255	0
0	1582	1503.210601241133	1
0	1584	1504.54614299204	2
0	1585	1506.288584790122	1
0	1587	1507.562374840369	0
0	1590	1507.605923258108	1
0	1592	1508.547046266662	2
0	1593	1510.445311998974	1
0	1595	1510.535547792773	0
0	1598	1511.274526864335	1
0	1599	1511.972164325383	0
0	1622	1534.104181432858	1
0	1623	1537.984453747978	0
0	1630	1544.177068876973	1
0	1631	1544.87289516463	0
0	1674	1600.982701212122	1
0	1676	1602.359892668124	2
0	1678	1602.986024934058	3
0	1679	1603.042202282235	2
0	1681	1603.614075960218	1
0	1683	1604.797566128766	0
0	1686	1607.378243449122	1
0	1687	1607.666739824796	0
0	1694	1620.862152321675	1
0	1696	1620.976960573872	2
0	1697	1625.328424961696	1
0	1699	1625.409640148933	0
0	1702	1626.386189339263	1
0	1704	1628.135031108267	2
0	1705	1629.801057435366	1
0	1707	1629.999545044193	0
0	1714	1631.20760107498	1
0	1716	1631.990516983521	2
0	1718	1636.7469363829	3
0	1719	1636.916813159273	2
0	1721	1637.544128280855	1
0	1723	1638.297886288451	0
0	1762	1693.225963510353	1
0	1764	1693.838034123322	2
0	1765	1695.48182449216	1
0	1767	1695.855955933955	0
0	1786	1724.455318433171	1
0	1787	1728.095840106113	0
0	1814	1757.1213440531	1
0	1815	1757.166300685552	0
0	1826	1766.317994928083	1
0	1827	1768.023774869682	0
0	1834	1775.233836621526	1
0	1835	1775.325256962113	0
0	1850	1785.055951751146	1
0	1851	1788.215843823188	0
0	1862	1798.073399892428	1
0	1864	1800.359855856494	2
0	1865	1803.280380572506	1
0	1867	1803.986860662211	0
0	1870	1806.54869476359	1
0	1872	1809.242550501463	2
0	1873	1812.510272070213	1
0	1875	1812.628162965017	0
0	1890	1824.112611153744	1
0	1891	1826.928930193498	0
0	1910	1845.420407844091	1
0	1911	1848.51705813999	0
0	1914	1849.032748530281	1
0	1916	1849.582488889559	2
0	1917	1849.973031287845	1
0	1919	1851.44337335482	0
0	1922	1852.439750184393	1
0	1924	1853.840399345937	2
0	1925	1854.097475705195	1
0	1928	1855.512038376228	2
0	1929	1856.167720273466	1
0	1931	1856.383952818744	0
0	1934	1857.065520919835	1
0	1935	1860.663720588993	0
0	1942	1865.033471597418	1
0	1943	1865.478911984488	0
0	1946	1866.112565532771	1
0	1947	1866.49025539218	0
0	1950	1866.831345218412	1
0	1952	1866.892209009527	2
0	1953	1867.272889007265	1
0	1955	1868.561438648322	0
0	1958	1869.109958973312	1
0	1959	1872.596374743838	0
0	1962	1876.540209899865	1
0	1963	1878.285692435162	0
0	1970	1888.534830354083	1
0	1971	1889.588315430437	0
0	1974	1890.723242457303	1
0	1975	1890.944822460341	0
0	1994	1909.540903427939	1
0	1995	1912.796810062784	0
0	2002	1917.281090606766	1
0	2004	1920.320987710058	2
0	2005	1920.462403895515	1
0	2007	1922.023255608044	0
0	2042	1962.608178174368	1
0	2043	1964.797512751227	0
0	2054	1977.041415893032	1
0	2056	1980.045920703962	2
0	2057	1980.30510028984	1
0	2059	1980.634601570406	0
0	2070	1986.826946705292	1
0	2072	1987.102503876198	2
0	2074	1987.795170287728	3
0	2075	1988.174697511618	2
0	2078	1988.298158248707	3
0	2079	1989.327328345061	2
0	2082	1989.67174044991	3
0	2083	1990.70192708586	2
0	2085	1992.919387701124	1
0	2088	1995.226103062282	2
0	2089	1998.52821977393	1
0	2092	1999.958661276531	2
0	2093	2000.683813987076	1
0	2095	2001.719129053933	0
0	2098	2005.710737291007	1
0	2099	2009.457918774296	0
0	2102	2010.02202426765	1
0	2103	2012.10499116415	0
0	2110	2016.991258057227	1
0	2111	2019.133179086404	0
0	2118	2020.310590329412	1
0	2119	2020.88429743036	0
0	2126	2030.433712334677	1
0	2127	2030.475236636243	0
0	2198	2126.288062236806	1
0	2199	2126.324810603477	0
0	2214	2159.963053220607	1
0	2215	2163.84128472925	0
0	2222	2166.655020353569	1
0	2223	2166.908900846925	0
0	2254	2202.340410567864	1
0	2255	2202.408553683297	0
0	2270	2215.38487140029	1
0	2271	2217.486322078107	0
0	2290	2235.447169748327	1
0	2291	2242.162832676762	0
0	2294	2242.399201626644	1
0	2295	2242.458160546656	0
0	2298	2242.724832810232	1
0	2299	2245.92124756009	0
0	2318	2269.658945916321	1
0	2320	2270.239937672221	2
0	2322	2271.477966360926	3
0	2324	2271.483259987689	4
0	2325	2274.291252990916	3
0	2327	2275.368736523245	2
0	2330	2275.721633088848	3
0	2332	2276.079198574772	4
0	2334	2276.869533486335	5
0	2335	2276.934870101029	4
0	2337	2277.420777532682	3
0	2340	2277.993559212703	4
0	2341	2278.64475242497	3
0	2344	2280.077753240857	4
0	2345	2280.123137432526	3
0	2347	2281.983832445519	2
0	2349	2284.020222609949	1
0	2352	2284.721405804822	2
0	2354	2287.072718937893	3
0	2355	2288.901569741761	2
0	2358	2289.875586482411	3
0	2360	2290.266954320664	4
0	2361	2291.133329903434	3
0	2364	2291.91798525384	4
0	2365	2292.282392105593	3
0	2368	2292.844041915598	4
0	2369	2293.778275666015	3
0	2371	2294.975295906865	2
0	2373	2298.024992539297	1
0	2376	2298.219090009261	2
0	2378	2298.290331131703	3
0	2379	2301.08108028476	2
0	2382	2302.127081696621	3
0	2383	2304.680860121774	2
0	2385	2306.342389907746	1
0	2388	2306.914897334519	2
0	2390	2309.72480377356	3
0	2392	2309.906791658089	4
0	2394	2311.063351054239	5
0	2395	2311.867015774753	4
0	2397	2312.044685504074	3
0	2400	2312.14967066784	4
0	2401	2312.513936340509	3
0	2404	2313.396297703705	4
0	2405	2314.590829527226	3
0	2408	2314.617998155806	4
0	2409	2318.468952922933	3
0	2411	2320.347326309448	2
0	2413	2324.419564279163	1
0	2416	2329.023741582444	2
0	2417	2330.237235729135	1
0	2419	2332.740311112352	0
0	2422	2335.28851297656	1
0	2423	2339.205309338491	0
0	2434	2350.853616553324	1
0	2435	2353.908094230917	0
0	2454	2372.133884672749	1
0	2455	2373.322115489675	0
0	2470	2388.28431942135	1
0	2471	2388.49654475785	0
0	2478	2397.717417448983	1
0	2479	2398.258280732169	0
0	2486	2401.672415194913	1
0	2487	2402.1315815285	0
0	2514	2422.2769405107	1
0	2515	2423.25489945148	0
0	2522	2428.602158509278	1
0	2524	2431.931471903454	2
0	2526	2432.465575433067	3
0	2527	2432.821856346853	2
0	2530	2433.096971282407	3
0	2531	2433.154227501898	2
0	2533	2434.129622526555	1
0	2536	2435.302444102293	2
0	2537	2435.99209505438	1
0	2539	2437.135254390061	0
0	2546	2440.229398295253	1
0	2547	2440.887253866325	0
0	2570	2465.329106299103	1
0	2571	2465.423974111743	0
0	2574	2466.925823855755	1
0	2576	2467.462426920666	2
0	2578	2469.617200971197	3
0	2579	2473.125860450838	2
0	2581	2473.180895929097	1
0	2583	2473.313829212483	0
0	2602	2487.53162583685	1
0	2603	2488.843399260191	0
0	2610	2493.952390480803	1
0	2612	2495.55567122756	2
0	2613	2498.287573980938	1
0	2616	2498.46153794598	2
0	2617	2501.07796691174	1
0	2619	2501.273134895805	0
0	2638	2535.608992824127	1
0	2640	2537.706947443793	2
0	2642	2539.5715960589	3
0	2643	2540.883990598485	2
0	2645	2541.129000881367	1
0	2647	2543.223684550122	0
0	2654	2556.578768009702	1
0	2655	2556.797646092078	0
0	2666	2564.290258510244	1
0	2667	2564.377500525738	0
0	2682	2581.143406850438	1
0	2683	2584.283845349834	0
0	2690	2589.182353384606	1
0	2691	2589.430831255365	0
0	2702	2600.476935205043	1
0	2703	2603.199213733826	0
0	2714	2611.657467357651	1
0	2716	2615.726980364626	2
0	2717	2615.739796565437	1
0	2719	2616.511193191754	0
0	2722	2618.072828629484	1
0	2724	2618.223325846421	2
0	2725	2618.31118005373	1
0	2727	2618.763323229716	0
0	2734	2629.334766572103	1
0	2735	2629.673787179964	0
0	2742	2630.849152340982	1
0	2743	2631.031476939886	0
0	2766	2658.266620250562	1
0	2768	2659.646304797402	2
0	2769	2659.749776998744	1
0	2771	2660.843905931954	0
0	2774	2661.044185898914	1
0	2776	2664.339844804095	2
0	2777	2665.130664550509	1
0	2779	2665.143204052255	0
0	2782	2665.917598693278	1
0	2783	2665.96593899202	0
0	2786	2666.189840941413	1
0	2788	2670.878035105268	2
0	2789	2671.280555571828	1
0	2792	2672.354400159625	2
0	2793	2672.920925997229	1
0	2796	2674.346598533256	2
0	2797	2675.075114137057	1
0	2800	2675.171219178921	2
0	2802	2675.373718460776	3
0	2803	2678.795851165005	2
0	2805	2679.574147920004	1
0	2808	2679.622257800399	2
0	2809	2680.475421859046	1
0	2812	2681.823380244342	2
0	2813	2682.48709275952	1
0	2815	2684.237276879544	0
0	2822	2692.675824544047	1
0	2823	2692.773962963884	0
0	2830	2699.720176529009	1
0	2831	2699.910907938905	0
0	2834	2700.479820250118	1
0	2836	2700.535551035615	2
0	2837	2701.254601484845	1
0	2839	2702.157608588576	0
0	2842	2703.383925722266	1
0	2843	2703.720255156541	0
0	2850	2706.662867932764	1
0	2851	2707.515900774544	0
0	2870	2745.657868676124	1
0	2871	2746.671619402283	0
0	2878	2750.765805807104	1
0	2879	2751.153234581216	0
0	2894	2760.923522451058	1
0	2896	2761.248967009298	2
0	2898	2767.145134154386	3
0	2899	2767.369878911864	2
0	2901	2768.004784055273	1
0	2903	2769.968950738416	0
0	2906	2771.975204243175	1
0	2907	2773.388768039275	0
0	2910	2776.158249124533	1
0	2911	2776.469051693637	0
0	2914	2777.15630388325	1
0	2916	2783.282848805971	2
0	2917	2783.356760332942	1
0	2919	2783.543052613573	0
0	2930	2788.087253115418	1
0	2931	2791.892425780761	0
0	2934	2791.966042311733	1
0	2935	2792.499973530459	0
0	2942	2810.811139740611	1
0	2944	2812.210318129034	2
0	2945	2814.422683390319	1
0	2947	2816.043154066263	0
0	2950	2817.246891237029	1
0	2952	2818.155567194699	2
0	2953	2821.597724021984	1
0	2956	2822.257412240633	2
0	2957	2822.426437866412	1
0	2959	2822.471481603214	0
0	2966	2824.519646762845	1
0	2967	2825.723182026502	0
0	2994	2851.684123039418	1
0	2995	2851.956724687973	0
0	3010	2864.126217739667	1
0	3012	2869.087165490631	2
0	3013	2871.836868566852	1
0	3016	2872.173533960368	2
0	3017	2872.305975933559	1
0	3019	2875.415115789673	0
0	3022	2877.597447089695	1
0	3024	2877.780243146066	2
0	3025	2881.922591146623	1
0	3027	2881.989066439293	0
0	3042	2899.194565532901	1
0	3043	2900.300039797093	0
0	3054	2914.035445318448	1
0	3055	2914.3524667232	0
0	3058	2917.928376106722	1
0	3059	2918.512525261212	0
0	3066	2926.219821088597	1
0	3067	2928.579158636125	0
0	3070	2929.500680082777	1
0	3071	2929.861348720419	0
0	3082	2944.084254071163	1
0	3084	2946.916745501338	2
0	3085	2947.679345729211	1
0	3087	2948.82974035356	0
0	3114	2977.163455885561	1
0	3115	2982.432629410922	0
0	3118	2984.878736781064	1
0	3119	2985.173470340699	0
0	3122	2987.78024048455	1
0	3124	2987.866569802938	2
0	3125	2988.676916916018	1
0	3127	2989.081133432367	0
0	3142	3003.899515947437	1
0	3143	3005.447671900964	0
0	3158	3017.855699482267	1
0	3159	3017.938685706136	0
0	3162	3019.49018211006	1
0	3163	3019.624190762767	0
0	3166	3019.925451213104	1
0	3168	3019.999557921746	2
0	3169	3021.52784553613	1
0	3172	3021.563241214531	2
0	3173	3021.908253090502	1
0	3175	3022.440302210268	0
0	3182	3028.54825478046	1
0	3183	3029.199472722579	0
0	3202	3061.855919537664	1
0	3204	3062.718727254873	2
0	3205	3063.082462649843	1
0	3207	3064.410304408501	0
0	3214	3076.862770296209	1
0	3215	3077.525647160442	0
0	3238	3106.516179428878	1
0	3240	3106.793991554097	2
0	3241	3107.44963611325	1
0	3244	3108.698878057973	2
0	3245	3108.742472953178	1
0	3247	3110.143084741285	0
0	3250	3111.494922840247	1
0	3251	3111.828965182929	0
0	3254	3112.639287745984	1
0	3255	3116.372350298919	0
0	3266	3154.117136267263	1
0	3267	3154.906666544734	0
0	3294	3185.951744798468	1
0	3295	3187.493713981449	0
0	3310	3198.845611579569	1
0	3311	3200.679348544072	0
0	3318	3204.259229584591	1
0	3319	3204.311558974349	0
0	3326	3212.32918163782	1
0	3327	3215.212849121949	0
0	3334	3226.009099586252	1
0	3335	3228.22196021542	0
0	3350	3249.879946053058	1
0	3352	3253.068301894676	2
0	3354	3254.462057164235	3
0	3355	3258.29818415518	2
0	3357	3258.347368716141	1
0	3359	3260.232538992975	0
0	3362	3262.23132220813	1
0	3363	3262.292755133916	0
0	3374	3273.655483691812	1
0	3375	3274.102429130907	0
0	3386	3287.417673281906	1
0	3387	3287.557827099372	0
0	3390	3287.875611581456	1
0	3391	3287.981706181036	0
0	3410	3302.292519006465	1
0	3411	3303.017243483122	0
0	3422	3313.21357586338	1
0	3423	3313.611349444275	0
0	3426	3315.537923832824	1
0	3428	3316.112038734591	2
0	3429	3316.301276099628	1
0	3431	3316.323407438368	0
0	3442	3342.179490349894	1
0	3444	3342.40393853659	2
0	3446	3344.356131405013	3
0	3447	3347.329690531453	2
0	3449	3347.576293202466	1
0	3451	3348.369953626794	0
0	3494	3398.879436201127	1
0	3495	3399.305036143341	0
0	3502	3400.781562008397	1
0	3503	3400.979101520279	0
0	3510	3407.124128681758	1
0	3511	3407.777912408956	0
0	3514	3407.9447801972	1
0	3516	3409.299285780971	2
0	3517	3413.950369396116	1
0	3519	3414.306425150743	0
0	3534	3449.995999416419	1
0	3535	3450.650601310423	0
0	3538	3452.339671223931	1
0	3539	3452.50515266062	0
0	3570	3501.075438840897	1
0	3571	3501.092329920444	0
1	2	0	0
1	6	3.20112956357	0
1	10	8.127160944537	0
1	14	9.502222577724	0
1	18	12.362383767155	0
1	22	21.300107152193	0
1	26	30.364853321247	0
1	30	30.901655517289	0
1	34	31.830609047164	0
1	38	32.041964717878	0
1	44	34.488353845055	0
1	48	36.929709307435	0
1	52	41.11922748009	0
1	56	42.424848586039	0
1	60	46.936043833315	0
1	64	50.510862849088	0
1	67	53.414247748196	6.478203914881
1	75	58.304884051244	1.077759038252
1	79	59.036490229372	5.1550125161
1	81	60.066025804923	4.984166518282
1	83	61.675399069253	3.114625878156
1	87	63.442174958271	0.155974240686
1	92	65.608716887983	0
1	95	66.821216979685	0.529974323558
1	99	69.656087431432	0.218097749017
1	104	75.500227654717	0
1	108	76.963456760706	0
1	113	81.434526961377	1.503267580796
1	115	81.476186855115	3.508831602684
1	120	90.950798631914	0
1	124	105.868842487168	0
1	128	110.332490915791	0
1	132	119.657832827633	0
1	136	127.134577918387	0
1	140	129.033800370181	0
1	143	130.101711455299	0.680911372079
1	148	133.659261465672	0
1	152	136.92360226144	0
1	156	138.718542416483	0
1	160	139.738392729252	0
1	164	141.825399225928	0
1	167	144.583301497174	0.226379343372
1	171	146.464589579544	0.853010856354
1	176	146.991652863947	0
1	180	149.439296238829	0
1	184	157.319031447414	0
1	187	161.416034573065	0.56700166367
1	193	164.750462674031	1.265193448396
1	195	164.906818482052	2.724345215896
1	200	165.910374415374	0
1	205	168.769433698655	1.939341488674
1	207	168.901221487543	1.171655553839
1	213	172.579441441626	1.598317752592
1	217	173.760263238466	0.135757126535
1	219	174.660164783162	4.044123710216
1	223	177.019595255858	1.596316204967
1	228	180.342994438051	0
1	232	185.836447317366	0
1	236	190.535306381936	0
1	240	195.2094769922	0
1	243	198.922547848845	1.842005560843
1	248	201.492648015293	0
1	252	203.153792707737	0
1	255	206.652665331928	0.096918096857
1	260	208.132703625523	0
1	264	210.488897842391	0
1	267	211.208725677207	0.465814843019
1	271	214.499090844643	2.644326618493
1	276	226.100596296757	0
1	280	227.149091345461	0
1	284	231.852933489964	0
1	288	236.057675552456	0
1	292	241.206211224527	0
1	295	246.209015675963	2.42470123108
1	300	247.416253508169	0
1	313	252.6164248457	2.099574832809
1	315	252.863511361948	4.868670706887
1	317	253.25083163091	5.557308900772
1	321	253.900417579193	0.160294764187
1	323	254.080268559638	4.539127367901
1	327	256.439808801974	1.867578319899
1	329	258.630790777497	8.667743744788
1	331	261.420573436518	210.81261406568
1	335	268.6930162198	1.966122666769
1	340	271.304828864287	0
1	344	274.419820587886	0
1	348	279.332617593927	0
1	352	280.55810236034	0
1	356	291.012282905157	0
1	360	298.322485962578	0
1	364	303.505661580988	0
1	367	306.730581637967	0.607367971495
1	372	313.506467856272	0
1	376	318.968551551708	0
1	379	323.504854305219	0.217228122037
1	384	333.100107678765	0
1	388	337.116942132457	0
1	391	341.389532309496	2.450139720594
1	395	342.966130569221	0.80734184008
1	401	346.486909364839	2.600471922875
1	403	346.940403557858	3.907096919597
1	408	349.060126037915	0
1	411	355.416372917555	0.208955389999
1	416	369.523696879946	0
1	420	377.138165655272	0
1	424	380.275658604998	0
1	427	381.672099525773	1.02011736039
1	432	383.336532866507	0
1	436	393.857354957096	0
1	440	400.054833685318	0
1	443	404.41376636298	1.703847265166
1	447	405.813124457488	0.673276564763
1	455	407.511499305987	0.301989626557
1	457	407.768569649506	1.645192393839
1	459	408.606946091564	1.703335281182
1	464	416.126595137225	0
1	468	420.21516308813	0
1	479	429.486666951362	5.3729339341
1	481	430.066680524598	7.094088227024
1	483	430.661354596643	9.827370706923
1	485	431.285161385392	8.111146046335
1	487	431.932862172835	2.571291335845
1	493	436.493277450274	0.311711548339
1	495	436.809666325442	3.235954760703
1	499	440.41627374891	2.94958413755
1	503	451.198532022134	9.507065737764
1	508	454.226803737187	0
1	512	456.514208951868	0
1	519	457.868030558124	1.062968867676
1	521	458.145769522833	0.756819205336
1	523	458.638588510512	1.595666819214
1	528	470.2352793201	0
1	531	473.71359128326	0.365575367759
1	539	486.448089736615	5.087209497713
1	541	486.791255990902	4.224089681598
1	545	488.063527253023	0.786031039091
1	547	490.521640201517	9.906239918858
1	555	500.00952125258	3.695059267966
1	557	500.840570095608	2.859871528251
1	559	503.226965477325	4.978829770595
1	564	506.232058524901	0
1	567	509.628983273107	2.022045303791
1	571	513.393077632893	0.381157989418
1	576	513.699980614637	0
1	580	518.449275156957	0
1	584	525.815249842935	0
1	588	531.010612561962	0
1	592	532.790186914583	0
1	596	537.97877770944	0
1	599	539.525166816694	0.945575260205
1	603	541.622374028739	1.536326468578
1	607	542.364390190809	0.102310402244
1	612	550.651264888113	0
1	615	552.024263360823	0.705282944702
1	620	559.804196357378	0
1	624	566.221287770617	0
1	628	580.470175633346	0
1	637	592.720075970687	1.360362541797
1	639	592.943999873691	10.640240114764
1	641	593.291866725199	8.970007178888
1	643	594.012367356795	10.791257976383
1	648	604.795501793853	0
1	652	609.595557760965	0
1	656	612.230517885986	0
1	660	613.583892515231	0
1	664	620.759448678276	0
1	668	628.987962496682	0
1	673	634.264045889178	4.88946005526
1	675	635.166256646848	4.81854358244
1	679	638.385705825312	0.908511858627
1	684	645.020698265195	0
1	687	646.865771313011	0.33375308267
1	692	647.842117534325	0
1	696	650.096316729394	0
1	700	653.197621750527	0
1	703	656.247668032711	2.648258895497
1	708	660.85327380912	0
1	712	663.913865271116	0
1	716	669.879912695677	0
1	720	670.92971836138	0
1	724	684.373014465893	0
1	728	689.934662694286	0
1	731	696.910080650053	5.294561435719
1	736	703.482361102524	0
1	740	708.305081894005	0
1	744	715.649459693942	0
1	748	715.835718953079	0
1	751	716.338744099248	0.274027279769
1	756	721.495346544526	0
1	759	724.548828900644	1.5999129461
1	764	725.858085077014	0
1	767	727.154171784208	0.61643164701
1	772	741.795948564792	0
1	776	744.590606437932	0
1	780	751.654998526011	0
1	787	754.902355892423	0.332298089198
1	789	755.798319765583	0.971048657279
1	791	760.107765227358	8.14507925852
1	795	764.728411236032	1.276145981456
1	800	765.813257306116	0
1	805	766.480540259494	0.383232217488
1	807	766.959325814181	0.543695964225
1	812	769.511260170918	0
1	816	769.82555639972	0
1	825	779.727524213937	0.539822743461
1	827	780.421976559583	9.784172406298
1	829	781.558654024141	8.627512428675
1	833	783.476556223133	0.413118351079
1	835	784.687971210252	9.001939021947
1	845	792.421808068003	7.492337592975
1	847	793.437258641616	2.677273946315
1	849	795.227912694257	5.757068853998
1	851	797.149726389441	8.363196870903
1	861	800.257630023697	0.296430781057
1	863	800.283305105806	2.446481438705
1	865	800.346140307852	3.173956735177
1	867	800.612338708692	1.764592290208
1	872	802.573116993082	0
1	877	803.215284407313	0.516063235854
1	879	803.863334621985	1.287234435835
1	885	809.555008355062	4.379558349846
1	887	809.712636391086	3.827751498349
1	892	810.436399465318	0
1	895	818.977563288512	2.198188724524
1	900	820.231923183982	0
1	904	824.978616063904	0
1	908	826.962088367897	0
1	911	827.360796741374	0.209099798276
1	915	830.08462012939	0.617779018674
1	920	831.327576146937	0
1	924	834.962883184634	0
1	929	838.116076252221	2.576703751434
1	931	840.127979135499	3.555011017214
1	936	843.317864128712	0
1	939	845.350378447143	0.804644123862
1	943	847.479576617063	0.821139841152
1	948	857.652187141604	0
1	951	859.16846810807	0.226897245192
1	956	859.569542863916	0
1	960	864.412460183396	0
1	964	867.76114521967	0
1	968	871.543959914149	0
1	971	872.333793802532	0.618075055884
1	977	874.08759777509	0.211775043479
1	979	874.299603024749	0.406678021685
1	983	875.693605594522	0.668387262278
1	988	879.922684833357	0
1	992	880.176748078744	0
1	995	883.82825036053	2.255011047018
1	1000	899.302394526598	0
1	1004	913.495003660003	0
1	1008	916.124937793005	0
1	1012	921.447519547382	0
1	1016	925.453343199402	0
1	1021	935.866653309042	7.906170796512
1	1025	936.68013406575	0.180677411219
1	1027	937.722819485886	1.980835728093
1	1032	943.550557264854	0
1	1035	947.435045239417	3.712567688157
1	1040	951.790709630895	0
1	1044	956.298714572872	0
1	1047	958.81190867821	0.151451829836
1	1052	963.11418609122	0
1	1056	965.581661224811	0
1	1060	971.638230744924	0
1	1064	972.11987507541	0
1	1068	974.958261460116	0
1	1072	983.165241534756	0
1	1076	993.66353197628	0
1	1081	997.052099778954	1.231960718993
1	1083	997.098684063361	2.439581503285
1	1088	1005.194287184027	0
1	1092	1006.889927924735	0
1	1095	1009.133671589138	2.009528163025
1	1099	1013.913403225116	1.769785720394
1	1103	1016.430371729283	2.146152128106
1	1108	1019.601217737189	0
1	1112	1022.194613930695	0
1	1116	1024.971729623422	0
1	1121	1029.88741263129	1.380859540797
1	1123	1030.347848542956	3.213989403324
1	1128	1037.745429935039	0
1	1132	1042.165411357912	0
1	1136	1048.385822842841	0
1	1140	1057.429274710594	0
1	1144	1058.5810108072	0
1	1148	1068.674965901096	0
1	1152	1076.614549525796	0
1	1156	1079.436119031457	0
1	1160	1082.792532090618	0
1	1163	1086.771757298537	3.490860954969
1	1168	1089.024782178208	0
1	1175	1093.572070244457	3.786397282031
1	1179	1095.161668371798	1.782422491262
1	1181	1097.166240167601	3.484145175483
1	1187	1100.298908402498	2.86034178977
1	1189	1100.387870124104	0.246477825653
1	1191	1101.024244643692	8.185700248721
1	1195	1104.717620980277	0.082846858228
1	1200	1110.893668420998	0
1	1204	1127.118972642692	0
1	1211	1135.24521922873	3.784804099732
1	1213	1136.938448339751	9.468167723958
1	1215	1138.857448859942	3.955738722886
1	1219	1141.332899060121	2.224554575807
1	1224	1142.242203048723	0
1	1228	1145.502263741657	0
1	1232	1153.618919604673	0
1	1236	1156.024924402593	0
1	1240	1159.087585832648	0
1	1244	1163.784772013218	0
1	1247	1164.848295425304	0.688499879337
1	1261	1171.65450674908	5.232701662197
1	1263	1171.765546938735	3.369770591787
1	1265	1172.125235110682	2.752821037526
1	1269	1173.029800080081	0.752683504478
1	1271	1173.624033214206	6.169660095854
1	1273	1174.674524212435	7.228662386012
1	1277	1176.652384083765	0.997449606201
1	1279	1178.52202546711	11.66928160363
1	1284	1182.603137346514	0
1	1287	1188.851321467218	3.580517731786
1	1292	1194.15315056342	0
1	1296	1196.163659783262	0
1	1300	1201.623536371573	0
1	1303	1206.172714613831	1.330563123392
1	1308	1208.752955651531	0
1	1311	1210.103811099412	0.089863946529
1	1316	1221.110387131564	0
1	1320	1226.983090606173	0
1	1324	1227.612490583397	0
1	1328	1230.696357955544	0
1	1332	1252.574022916637	0
1	1335	1253.931925051695	1.156700336675
1	1339	1255.967632780345	1.749562408193
1	1344	1259.618897992871	0
1	1348	1259.77952622318	0
1	1352	1265.271792671686	0
1	1356	1268.679626103046	0
1	1360	1273.942308819758	0
1	1364	1277.143747339142	0
1	1368	1288.357818556239	0
1	1372	1290.05886789653	0
1	1376	1293.47654212606	0
1	1379	1294.530361455883	0.845360670549
1	1384	1296.909662643417	0
1	1388	1299.084386975739	0
1	1392	1315.420804774476	0
1	1396	1327.066907387946	0
1	1405	1331.50751116066	3.160878296901
1	1407	1331.687893726819	3.855664025506
1	1409	1332.483591158676	3.280485812475
1	1411	1333.322757557651	5.660553337062
1	1415	1337.192376361904	2.808309063977
1	1420	1337.524923806404	0
1	1424	1340.587153086738	0
1	1431	1346.80918675678	3.696672990855
1	1433	1348.361160910104	5.275514048554
1	1435	1351.406791334003	6.300850075946
1	1440	1372.498002068154	0
1	1444	1379.363672146223	0
1	1448	1382.766252600679	0
1	1452	1383.641180616915	0
1	1456	1393.767635303816	0
1	1459	1398.077362109301	2.102113647432
1	1464	1399.838509461357	0
1	1468	1400.74665221869	0
1	1471	1403.666529920035	1.329498603927
1	1476	1404.029227318066	0
1	1480	1406.037694435914	0
1	1483	1406.759231211713	0.631605808366
1	1488	1410.446949149923	0
1	1495	1423.257371272542	8.366849462999
1	1499	1424.365375009193	5.608932080745
1	1503	1425.477597299842	1.933102749288
1	1507	1426.960107500117	15.767888145358
1	1509	1428.979428543285	4.054078032802
1	1511	1431.673522534177	5.36674657877
1	1519	1435.181607925795	0.612947891878
1	1521	1435.860891482573	3.919473410341
1	1523	1437.033274763186	3.126299091608
1	1528	1443.995342889314	0
1	1531	1444.051396314056	0.003376849716
1	1536	1452.751279881037	0
1	1540	1454.133975616988	0
1	1544	1456.057910635275	0
1	1548	1471.399112116306	0
1	1551	1475.792214209923	2.0975026517
1	1556	1478.728173731669	0
1	1560	1480.854891801123	0
1	1564	1490.646991647597	0
1	1568	1495.731582469022	0
1	1572	1498.352613300919	0
1	1575	1499.292819339603	0.588282356702
1	1579	1500.952227915255	0.439766137055
1	1585	1506.288584790122	1.742441798082
1	1587	1507.562374840369	4.351773599236
1	1593	1510.445311998974	2.839388740866
1	1595	1510.535547792773	1.988501526111
1	1599	1511.972164325383	0.697637461048
1	1604	1514.277676076131	0
1	1608	1518.753258243262	0
1	1612	1524.224968015606	0
1	1616	1529.461912390415	0
1	1620	1531.669307806929	0
1	1623	1537.984453747978	3.88027231512
1	1628	1542.374457892225	0
1	1631	1544.87289516463	0.695826287657
1	1636	1549.535213197843	0
1	1640	1570.044272905684	0
1	1644	1580.395135187279	0
1	1648	1583.582388293359	0
1	1652	1585.038403149569	0
1	1656	1588.933157212489	0
1	1660	1593.545029916614	0
1	1664	1596.539350313492	0
1	1668	1598.210371406313	0
1	1672	1600.641381365496	0
1	1679	1603.042202282235	0.682309614111
1	1681	1603.614075960218	0.62805102616
1	1683	1604.797566128766	3.814864916644
1	1687	1607.666739824796	0.288496375674
1	1692	1620.177885327468	0
1	1697	1625.328424961696	4.466272640021
1	1699	1625.409640148933	4.432679575061
1	1705	1629.801057435366	1.666026327099
1	1707	1629.999545044193	3.61335570493
1	1712	1630.955637106686	0
1	1719	1636.916813159273	5.709212084293
1	1721	1637.544128280855	5.553611297334
1	1723	1638.297886288451	1.550949905551
1	1728	1640.464547913428	0
1	1732	1648.145044086334	0
1	1736	1661.324100168322	0
1	1740	1663.106843652714	0
1	1744	1666.979796511072	0
1	1748	1669.354288525917	0
1	1752	1672.171905442303	0
1	1756	1674.158950467982	0
1	1760	1689.317150184886	0
1	1765	1695.48182449216	1.643790368838
1	1767	1695.855955933955	2.629992423602
1	1772	1698.623752043948	0
1	1776	1712.120757230333	0
1	1780	1721.130203392001	0
1	1784	1724.396021949992	0
1	1787	1728.095840106113	3.640521672942
1	1792	1731.005563928501	0
1	1796	1741.750405761162	0
1	1800	1747.046373875185	0
1	1804	1749.28750983156	0
1	1808	1751.20508324858	0
1	1812	1756.664855141827	0
1	1815	1757.166300685552	0.044956632452
1	1820	1763.264158346511	0
1	1824	1766.027200241782	0
1	1827	1768.023774869682	1.705779941599
1	1832	1773.245439049242	0
1	1835	1775.325256962113	0.091420340587
1	1840	1775.685458641049	0
1	1844	1776.449124735036	0
1	1848	1784.297398083661	0
1	1851	1788.215843823188	3.159892072042
1	1856	1791.190500185379	0
1	1860	1797.71143284599	0
1	1865	1803.280380572506	5.206980680078
1	1867	1803.986860662211	3.627004805717
1	1873	1812.510272070213	5.961577306623
1	1875	1812.628162965017	3.385612463554
1	1880	1817.282684658424	0
1	1884	1819.193029904258	0
1	1888	1823.151857879097	0
1	1891	1826.928930193498	2.816319039754
1	1896	1831.499748172419	0
1	1900	1838.814038200724	0
1	1904	1842.151354588546	0
1	1908	1843.712213244656	0
1	1911	1848.51705813999	3.096650295899
1	1917	1849.973031287845	0.940282757564
1	1919	1851.44337335482	1.860884465261
1	1925	1854.097475705195	0.257076359258
1	1929	1856.167720273466	0.655681897238
1	1931	1856.383952818744	3.944202634351
1	1935	1860.663720588993	3.598199669158
1	1940	1864.261556061176	0
1	1943	1865.478911984488	0.44544038707
1	1947	1866.49025539218	0.377689859409
1	1953	1867.272889007265	0.441543788853
1	1955	1868.561438648322	1.669229638795
1	1959	1872.596374743838	3.486415770526
1	1963	1878.285692435162	1.745482535297
1	1968	1885.862060455565	0
1	1971	1889.588315430437	1.053485076354
1	1975	1890.944822460341	0.221580003038
1	1980	1898.828126690409	0
1	1984	1901.835427078127	0
1	1988	1905.017627998713	0
1	1992	1909.209060428287	0
1	1995	1912.796810062784	3.255906634845
1	2000	1916.834042147566	0
1	2005	1920.462403895515	3.181313288749
1	2007	1922.023255608044	1.702267897986
1	2012	1930.736264211379	0
1	2016	1933.918816440733	0
1	2020	1935.594281546628	0
1	2024	1940.782010589434	0
1	2028	1950.033140194167	0
1	2032	1953.864043549992	0
1	2036	1954.094077608712	0
1	2040	1962.535614134504	0
1	2043	1964.797512751227	2.189334576859
1	2048	1967.143966104414	0
1	2052	1976.356147897666	0
1	2057	1980.30510028984	0.259179585878
1	2059	1980.634601570406	3.593185677374
1	2064	1984.929780657119	0
1	2068	1985.701749643428	0
1	2075	1988.174697511618	1.07219363542
1	2079	1989.327328345061	1.532158057333
1	2083	1990.70192708586	3.874980380568
1	2085	1992.919387701124	4.621229452417
1	2089	1998.52821977393	3.302116711648
1	2093	2000.683813987076	0.725152710545
1	2095	2001.719129053933	12.047388604023
1	2099	2009.457918774296	3.747181483289
1	2103	2012.10499116415	2.0829668965
1	2108	2016.346090803232	0
1	2111	2019.133179086404	2.141921029177
1	2116	2020.223816885894	0
1	2119	2020.88429743036	0.573707100948
1	2124	2023.017040056699	0
1	2127	2030.475236636243	0.041524301566
1	2132	2032.990524054117	0
1	2136	2034.392080030323	0
1	2140	2035.67651154455	0
1	2144	2037.676987112164	0
1	2148	2047.482394801123	0
1	2152	2062.12683980597	0
1	2156	2067.646229198521	0
1	2160	2085.177560172558	0
1	2164	2090.92350734902	0
1	2168	2092.26114983944	0
1	2172	2094.545448915343	0
1	2176	2099.682554507112	0
1	2180	2104.624959080196	0
1	2184	2109.159327742378	0
1	2188	2111.836176264728	0
1	2192	2112.454062463962	0
1	2196	2125.293584726857	0
1	2199	2126.324810603477	0.036748366671
1	2204	2141.814880127621	0
1	2208	2142.360101068065	0
1	2212	2158.075889090051	0
1	2215	2163.84128472925	3.878231508643
1	2220	2166.625744972649	0
1	2223	2166.908900846925	0.253880493356
1	2228	2169.010174725419	0
1	2232	2170.155263134863	0
1	2236	2174.898815063513	0
1	2240	2179.249821951456	0
1	2244	2181.728801086686	0
1	2248	2186.634163770037	0
1	2252	2201.948867231364	0
1	2255	2202.408553683297	0.068143115433
1	2260	2205.648734876129	0
1	2264	2210.156301081751	0
1	2268	2214.168257852623	0
1	2271	2217.486322078107	2.101450677817
1	2276	2223.701159168223	0
1	2280	2224.828124390779	0
1	2284	2232.284452617917	0
1	2288	2234.829468462051	0
1	2291	2242.162832676762	6.715662928435
1	2295	2242.458160546656	0.058958920012
1	2299	2245.92124756009	3.196414749858
1	2304	2249.063611616434	0
1	2308	2252.72889672228	0
1	2312	2261.100122497624	0
1	2316	2267.602483477909	0
1	2325	2274.291252990916	2.807993003227
1	2327	2275.368736523245	3.890770162319
1	2335	2276.934870101029	1.213237012181
1	2337	2277.420777532682	1.34157895791
1	2341	2278.64475242497	0.651193212267
1	2345	2280.123137432526	0.045384191669
1	2347	2281.983832445519	12.324886529198
1	2349	2284.020222609949	13.780284937728
1	2355	2288.901569741761	4.180163936939
1	2361	2291.133329903434	0.86637558277
1	2365	2292.282392105593	0.364406851753
1	2369	2293.778275666015	0.934233750417
1	2371	2294.975295906865	5.099709424454
1	2373	2298.024992539297	10.952273601404
1	2379	2301.08108028476	2.861990275499
1	2383	2304.680860121774	2.553778425153
1	2385	2306.342389907746	8.052058776043
1	2395	2311.867015774753	2.142212001193
1	2397	2312.044685504074	5.129788169555
1	2401	2312.513936340509	1.45058528627
1	2405	2314.590829527226	4.684037869137
1	2409	2318.468952922933	3.850954767127
1	2411	2320.347326309448	8.197655641608
1	2413	2324.419564279163	47.550030792828
1	2417	2330.237235729135	1.213494146691
1	2419	2332.740311112352	19.344013408647
1	2423	2339.205309338491	3.916796361931
1	2428	2344.150868060504	0
1	2432	2349.150975474836	0
1	2435	2353.908094230917	3.054477677593
1	2440	2362.232769789949	0
1	2444	2364.882893683574	0
1	2448	2365.703297591381	0
1	2452	2370.933218771867	0
1	2455	2373.322115489675	1.188230816926
1	2460	2379.055460332684	0
1	2464	2384.451129576077	0
1	2468	2385.822219511272	0
1	2471	2388.49654475785	0.2122253365
1	2476	2393.306749905442	0
1	2479	2398.258280732169	0.540863283186
1	2484	2400.70849384611	0
1	2487	2402.1315815285	0.459166333587
1	2492	2403.240990129366	0
1	2496	2407.988051454487	0
1	2500	2410.430510676735	0
1	2504	2415.491920281813	0
1	2508	2420.101441357062	0
1	2512	2421.859504625507	0
1	2515	2423.25489945148	0.97795894078
1	2520	2426.844519375559	0
1	2527	2432.821856346853	0.356280913786
1	2531	2433.154227501898	0.057256219491
1	2533	2434.129622526555	2.198150623101
1	2537	2435.99209505438	0.689650952087
1	2539	2437.135254390061	8.533095880783
1	2544	2439.729572430482	0
1	2547	2440.887253866325	0.657855571072
1	2552	2446.186202016923	0
1	2556	2453.811223813352	0
1	2560	2458.277793789031	0
1	2564	2463.816720500785	0
1	2568	2464.906477340821	0
1	2571	2465.423974111743	0.09486781264
1	2579	2473.125860450838	6.200036595083
1	2581	2473.180895929097	3.5636949579
1	2583	2473.313829212483	5.851402291817
1	2588	2475.344449699998	0
1	2592	2476.664565475677	0
1	2596	2484.412015652956	0
1	2600	2486.825129524383	0
1	2603	2488.843399260191	1.311773423341
1	2608	2491.643644861178	0
1	2613	2498.287573980938	4.335183500135
1	2617	2501.07796691174	2.61642896576
1	2619	2501.273134895805	5.717463668245
1	2624	2517.335983784504	0
1	2628	2522.911404707552	0
1	2632	2524.301461097358	0
1	2636	2534.794816606362	0
1	2643	2540.883990598485	5.274997774358
1	2645	2541.129000881367	3.422053437574
1	2647	2543.223684550122	3.652088491222
1	2652	2556.560653563149	0
1	2655	2556.797646092078	0.218878082376
1	2660	2560.7696720641	0
1	2664	2563.612158136764	0
1	2667	2564.377500525738	0.087242015494
1	2672	2568.395553025259	0
1	2676	2574.99363912208	0
1	2680	2580.82019140517	0
1	2683	2584.283845349834	3.140438499396
1	2688	2587.48432861385	0
1	2691	2589.430831255365	0.248477870759
1	2696	2596.840686791932	0
1	2700	2600.143702666361	0
1	2703	2603.199213733826	2.722278528783
1	2708	2605.938992283291	0
1	2712	2609.255724919765	0
1	2717	2615.739796565437	0.012816200811
1	2719	2616.511193191754	4.853725834103
1	2725	2618.31118005373	0.238351424246
1	2727	2618.763323229716	0.539997383295
1	2732	2627.977150401289	0
1	2735	2629.673787179964	0.339020607861
1	2740	2630.645140405867	0
1	2743	2631.031476939886	0.182324598904
1	2748	2635.903977048688	0
1	2752	2645.511571948603	0
1	2756	2647.998259949594	0
1	2760	2654.728966772287	0
1	2764	2656.323809917281	0
1	2769	2659.749776998744	0.103472201342
1	2771	2660.843905931954	2.577285681392
1	2777	2665.130664550509	4.086478651595
1	2779	2665.143204052255	0.80335924816
1	2783	2665.96593899202	0.048340298742
1	2789	2671.280555571828	0.40252046656
1	2793	2672.920925997229	0.566525837604
1	2797	2675.075114137057	8.885273195644
1	2803	2678.795851165005	3.422132704229
1	2805	2679.574147920004	4.402928741083
1	2809	2680.475421859046	0.853164058647
1	2813	2682.48709275952	0.663712515178
1	2815	2684.237276879544	9.890678346288
1	2820	2692.599401736456	0
1	2823	2692.773962963884	0.098138419837
1	2828	2699.645323765924	0
1	2831	2699.910907938905	0.190731409896
1	2837	2701.254601484845	0.71905044923
1	2839	2702.157608588576	1.677788338458
1	2843	2703.720255156541	0.336329434275
1	2848	2705.12992040636	0
1	2851	2707.515900774544	0.85303284178
1	2856	2721.32217671834	0
1	2860	2724.773627506923	0
1	2864	2735.206985322309	0
1	2868	2743.99842956842	0
1	2871	2746.671619402283	1.013750726159
1	2876	2749.897886691764	0
1	2879	2751.153234581216	0.387428774112
1	2884	2752.585466446366	0
1	2888	2757.203480000267	0
1	2892	2760.568408549136	0
1	2899	2767.369878911864	0.224744757478
1	2901	2768.004784055273	6.755817045975
1	2903	2769.968950738416	9.045428287358
1	2907	2773.388768039275	1.4135637961
1	2911	2776.469051693637	0.310802569104
1	2917	2783.356760332942	0.073911526971
1	2919	2783.543052613573	6.386748730323
1	2924	2786.723823030624	0
1	2928	2787.360335633042	0
1	2931	2791.892425780761	3.805172665343
1	2935	2792.499973530459	0.533931218726
1	2940	2807.282891291712	0
1	2945	2814.422683390319	2.212365261285
1	2947	2816.043154066263	5.232014325652
1	2953	2821.597724021984	3.442156827285
1	2957	2822.426437866412	0.169025625779
1	2959	2822.471481603214	5.224590366185
1	2964	2824.394500165218	0
1	2967	2825.723182026502	1.203535263657
1	2972	2827.425628330976	0
1	2976	2830.258758017526	0
1	2980	2839.97696428758	0
1	2984	2844.940461526773	0
1	2988	2846.389116878264	0
1	2992	2850.533384921041	0
1	2995	2851.956724687973	0.272601648555
1	3000	2855.931125757629	0
1	3004	2859.610728826859	0
1	3008	2863.423438603357	0
1	3013	2871.836868566852	2.749703076221
1	3017	2872.305975933559	8.179758193892
1	3019	2875.415115789673	3.241581829305
1	3025	2881.922591146623	4.325144056928
1	3027	2881.989066439293	4.208823293227
1	3032	2883.062474800293	0
1	3036	2895.066395023102	0
1	3040	2898.590581333192	0
1	3043	2900.300039797093	1.105474264192
1	3048	2909.490740098969	0
1	3052	2912.735757474603	0
1	3055	2914.3524667232	0.317021404752
1	3059	2918.512525261212	0.58414915449
1	3064	2925.761324455097	0
1	3067	2928.579158636125	2.359337547528
1	3071	2929.861348720419	0.360668637642
1	3076	2933.507385246814	0
1	3080	2943.928509476462	0
1	3085	2947.679345729211	0.762600227873
1	3087	2948.82974035356	4.745486282397
1	3092	2952.193146166658	0
1	3096	2956.504770116608	0
1	3100	2964.410023473908	0
1	3104	2968.68355444586	0
1	3108	2972.678218027309	0
1	3112	2976.443657654155	0
1	3115	2982.432629410922	5.269173525361
1	3119	2985.173470340699	0.294733559635
1	3125	2988.676916916018	0.81034711308
1	3127	2989.081133432367	1.300892947817
1	3132	2994.736121260256	0
1	3136	2999.402077406584	0
1	3140	3003.686914739926	0
1	3143	3005.447671900964	1.548155953527
1	3148	3008.788700612709	0
1	3152	3010.438744799123	0
1	3156	3017.177025961555	0
1	3159	3017.938685706136	0.082986223869
1	3163	3019.624190762767	0.134008652707
1	3169	3021.52784553613	1.602394323026
1	3173	3021.908253090502	1.908695168756
1	3175	3022.440302210268	0.877060995737
1	3180	3026.370867676828	0
1	3183	3029.199472722579	0.651217942119
1	3188	3029.96321823268	0
1	3192	3040.974524645704	0
1	3196	3046.163273067426	0
1	3200	3060.412350246888	0
1	3205	3063.082462649843	0.36373539497
1	3207	3064.410304408501	2.554384870837
1	3212	3076.531633139802	0
1	3215	3077.525647160442	0.662876864233
1	3220	3083.020411863956	0
1	3224	3094.791674876595	0
1	3228	3099.856039663514	0
1	3232	3103.273466394595	0
1	3236	3105.114969167827	0
1	3241	3107.44963611325	0.655644559153
1	3245	3108.742472953178	0.043594895205
1	3247	3110.143084741285	3.626905312407
1	3251	3111.828965182929	0.334042342682
1	3255	3116.372350298919	3.733062552935
1	3260	3126.614693390539	0
1	3264	3152.750097375874	0
1	3267	3154.906666544734	0.789530277471
1	3272	3157.784820547204	0
1	3276	3166.359837524526	0
1	3280	3169.865326972032	0
1	3284	3171.599952749175	0
1	3288	3179.079788614983	0
1	3292	3182.089063334594	0
1	3295	3187.493713981449	1.541969182981
1	3300	3191.609546594068	0
1	3304	3192.969827833135	0
1	3308	3197.605731273975	0
1	3311	3200.679348544072	1.833736964503
1	3316	3203.073098382675	0
1	3319	3204.311558974349	0.052329389758
1	3324	3210.622492039714	0
1	3327	3215.212849121949	2.883667484129
1	3332	3225.247453531219	0
1	3335	3228.22196021542	2.212860629168
1	3340	3231.020731495061	0
1	3344	3238.744106058032	0
1	3348	3246.943859442488	0
1	3355	3258.29818415518	5.229882260504
1	3357	3258.347368716141	8.467422663083
1	3359	3260.232538992975	5.77048182874
1	3363	3262.292755133916	0.061432925786
1	3368	3267.978005731236	0
1	3372	3270.858964656449	0
1	3375	3274.102429130907	0.446945439095
1	3380	3283.731468160506	0
1	3384	3287.023485357907	0
1	3387	3287.557827099372	0.140153817466
1	3391	3287.981706181036	0.10609459958
1	3396	3293.695900815523	0
1	3400	3296.680668739511	0
1	3404	3299.931647618571	0
1	3408	3302.200679161617	0
1	3411	3303.017243483122	0.724724476657
1	3416	3308.795543695362	0
1	3420	3310.717645800176	0
1	3423	3313.611349444275	0.397773580895
1	3429	3316.301276099628	0.189237365037
1	3431	3316.323407438368	0.785483605544
1	3436	3329.322904646757	0
1	3440	3342.140198570935	0
1	3447	3347.329690531453	4.925751994863
1	3449	3347.576293202466	3.220161797453
1	3451	3348.369953626794	6.1904632769
1	3456	3360.377506442493	0
1	3460	3363.007064358746	0
1	3464	3373.245380075011	0
1	3468	3374.91774036712	0
1	3472	3377.653164110494	0
1	3476	3384.713059240009	0
1	3480	3389.012077435575	0
1	3484	3390.476399931822	0
1	3488	3392.916381831527	0
1	3492	3396.830231115594	0
1	3495	3399.305036143341	0.425599942214
1	3500	3399.763262050528	0
1	3503	3400.979101520279	0.197539511882
1	3508	3406.178992345583	0
1	3511	3407.777912408956	0.653783727198
1	3517	3413.950369396116	6.005589198916
1	3519	3414.306425150743	5.007139369772
1	3524	3427.356377211878	0
1	3528	3446.398015888032	0
1	3532	3449.012339000432	0
1	3535	3450.650601310423	0.654601894004
1	3539	3452.50515266062	0.165481436689
1	3544	3460.919695738649	0
1	3548	3464.386429600905	0
1	3552	3473.62058477217	0
1	3556	3482.112766249607	0
1	3560	3488.844383190061	0
1	3564	3497.458818687545	0
1	3568	3500.335843914247	0
1	3571	3501.092329920444	0.016891079547
1	3576	3507.122533863542	0
1	3580	3526.622398343533	0
1	3584	3530.964691515837	0
1	3588	3532.100218895827	0
1	3592	3542.631481680042	0
1	3596	3552.924670242741	0
1	3600	3563.237421586274	0
1	3604	3567.587904400408	0
1	3608	3578.730754396356	0
1	3612	3579.790618905672	0
1	3616	3583.213215372642	0
2	3	0.146700875929	0.146700875929
2	7	6.865655621272	3.664526057702
2	11	8.385849467519	0.258688522982
2	15	11.186962144185	1.684739566461
2	19	13.511555116778	1.149171349623
2	23	21.33795911648	0.037851964287
2	27	30.447811778717	0.08295845747
2	31	31.471396379552	0.569740862263
2	35	32.027051162038	0.196442114874
2	41	34.415695710307	2.373730992429
2	45	34.802527494547	0.435500048451
2	49	37.415323065665	0.48561375823
2	53	41.992845160134	0.873617680044
2	57	43.632091618455	9.1437377734
2	61	48.293096690883	5.868248104844
2	67	53.414247748196	2.903384899108
2	75	58.304884051244	11.368840217929
2	79	59.036490229372	1.80936521638
2	81	60.066025804923	6.184548091651
2	83	61.675399069253	6.593539782612
2	87	63.442174958271	4.881401767174
2	89	64.085121825741	0.798921108156
2	95	66.821216979685	1.212500091702
2	99	69.656087431432	3.364844775305
2	101	73.058872887484	3.620883205069
2	105	76.095922226613	0.595694571896
2	113	81.434526961377	4.471070200671
2	115	81.476186855115	1.544927474534
2	117	84.010878599673	6.043523347242
2	121	91.258773787128	0.307975155214
2	125	106.655835060722	0.786992573554
2	129	113.642713389439	3.310222473648
2	133	120.676123420697	1.018290593064
2	137	128.240310785289	1.105732866902
2	143	130.101711455299	1.067911085118
2	145	133.195938578861	3.775138495641
2	149	136.159753975861	2.500492510189
2	153	136.970380202424	0.046777940984
2	157	139.477456694715	0.758914278232
2	161	141.392984983097	1.654592253845
2	167	144.583301497174	2.757902271246
2	171	146.464589579544	2.107667425742
2	173	146.919280636259	1.307701913069
2	177	149.112153208491	2.120500344544
2	181	151.612779879421	2.173483640592
2	187	161.416034573065	4.097003125651
2	193	164.750462674031	3.901429764636
2	195	164.906818482052	1.421549256417
2	197	165.844026829991	3.661553563835
2	205	168.769433698655	2.859059283281
2	207	168.901221487543	2.071129277562
2	213	172.579441441626	4.849875507922
2	217	173.760263238466	2.779139549432
2	219	174.660164783162	1.035658671231
2	223	177.019595255858	6.403554182912
2	225	178.471327027902	3.048047977011
2	229	181.565510212019	1.222515773968
2	233	189.140743955411	3.304296638045
2	237	191.295733247308	0.760426865372
2	243	198.922547848845	3.713070856645
2	245	200.266459495014	3.185917207012
2	249	203.04622566805	1.553577652757
2	255	206.652665331928	3.498872624191
2	257	208.127299615129	1.571552380058
2	261	208.440403550432	0.307699924909
2	267	211.208725677207	0.719827834816
2	271	214.499090844643	3.756180010455
2	273	215.268931166567	3.414166940417
2	277	226.143504787702	0.042908490945
2	281	228.46637340533	1.317282059869
2	285	231.90567537695	0.052741886986
2	289	237.466391356752	1.408715804296
2	295	246.209015675963	5.002804451436
2	297	246.672794384287	2.888479939404
2	313	252.6164248457	5.200171337531
2	315	252.863511361948	2.346661349057
2	317	253.25083163091	5.255990975849
2	321	253.900417579193	6.206894849055
2	323	254.080268559638	0.340145744632
2	327	256.439808801974	6.898667610237
2	329	258.630790777497	4.058560295422
2	331	261.420573436518	11.457526403809
2	335	268.6930162198	218.08505684897
2	337	269.492692233546	2.765798680515
2	341	272.202567912584	0.897739048297
2	345	275.913384909708	1.493564321822
2	349	280.438448988977	1.10583139505
2	353	283.985264352375	3.427161992035
2	357	292.70620754801	1.693924642853
2	361	302.581611579459	4.259125616881
2	367	306.730581637967	3.224920056979
2	369	307.591917396848	1.468703730376
2	373	316.469777355469	2.963309499197
2	379	323.504854305219	4.536302753511
2	381	326.585894178884	3.298267995702
2	385	333.76660320191	0.666495523145
2	391	341.389532309496	4.272590177039
2	395	342.966130569221	4.026737980319
2	401	346.486909364839	4.328120635698
2	403	346.940403557858	3.053966115894
2	405	347.47274578453	4.439439146269
2	411	355.416372917555	6.35624687964
2	413	358.322547278457	3.115129750901
2	417	369.940824705486	0.41712782554
2	421	378.405588891469	1.267423236197
2	427	381.672099525773	1.396440920775
2	429	382.050460535734	1.398478370351
2	433	384.045336080097	0.70880321359
2	437	394.483511520756	0.62615656366
2	443	404.41376636298	4.358932677662
2	447	405.813124457488	3.103205359674
2	455	407.511499305987	2.371651413262
2	457	407.768569649506	0.559059970076
2	459	408.606946091564	2.483568835897
2	461	410.488347148582	3.5847363382
2	465	416.20598643235	0.079391295125
2	479	429.486666951362	180.60436869111
2	481	430.066680524598	5.952947507336
2	483	430.661354596643	7.688762299069
2	485	431.285161385392	10.451177495672
2	487	431.932862172835	8.758846833778
2	493	436.493277450274	7.131706613284
2	495	436.809666325442	0.628100423507
2	499	440.41627374891	6.842562184171
2	503	451.198532022134	13.731842410774
2	505	452.077803973166	10.386337688796
2	509	455.811107408828	1.584303671641
2	519	457.868030558124	1.353821606256
2	521	458.145769522833	1.340707832385
2	523	458.638588510512	1.249638193015
2	525	462.571578124949	5.528656433651
2	531	473.71359128326	3.47831196316
2	539	486.448089736615	13.100073821114
2	541	486.791255990902	5.430375752
2	545	488.063527253023	5.496360943719
2	547	490.521640201517	3.244143987585
2	555	500.00952125258	19.394120969921
2	557	500.840570095608	4.526108110994
2	559	503.226965477325	5.246266909968
2	561	505.9868563511	7.73872064437
2	567	509.628983273107	3.396924748206
2	571	513.393077632893	5.786139663577
2	573	513.563259080045	0.55133943657
2	577	514.435405389754	0.735424775117
2	581	520.095724325603	1.646449168646
2	585	530.863220563016	5.047970720081
2	589	531.209991004141	0.199378442179
2	593	533.831598741716	1.041411827133
2	599	539.525166816694	1.546389107254
2	603	541.622374028739	3.04278247225
2	607	542.364390190809	2.278342630648
2	609	546.046547261246	3.784467472681
2	615	552.024263360823	1.37299847271
2	617	554.45729700018	3.138316584059
2	621	562.076096086885	2.271899729507
2	625	568.17445028735	1.953162516733
2	637	592.720075970687	12.249900337341
2	639	592.943999873691	1.584286444801
2	641	593.291866725199	10.988106966272
2	643	594.012367356795	9.690507810484
2	645	597.436882714483	14.215773334071
2	649	605.470098508781	0.674596714928
2	653	612.096321181247	2.500763420282
2	657	612.77528079898	0.544762912994
2	661	615.976336119887	2.392443604656
2	665	620.811167403563	0.051718725287
2	673	634.264045889178	5.276083392496
2	675	635.166256646848	5.79167081293
2	679	638.385705825312	8.037992760904
2	681	640.928466829497	3.451272862812
2	687	646.865771313011	1.845073047816
2	689	647.39229933097	0.860281100629
2	693	649.014608884221	1.172491349896
2	697	652.156775817448	2.060459088054
2	703	656.247668032711	3.050046282184
2	705	659.405119540395	5.805710403181
2	709	661.812344016572	0.959070207452
2	713	664.962082167677	1.048216896561
2	717	670.103249442611	0.223336746934
2	721	672.085796736185	1.156078374805
2	725	688.224473781642	3.851459315749
2	731	696.910080650053	6.975417955767
2	733	699.457092534369	7.841573320035
2	737	704.53793621988	1.055575117356
2	741	708.604813504431	0.299731610426
2	745	715.694146860796	0.044687166854
2	751	716.338744099248	0.503025146169
2	753	717.2211743495	1.156457530021
2	759	724.548828900644	3.053482356118
2	761	725.742326607734	2.79341065319
2	767	727.154171784208	1.296086707194
2	769	728.606693671573	2.068953534375
2	773	742.715200738617	0.919252173825
2	777	745.19938780665	0.608781368718
2	787	754.902355892423	3.247357366412
2	789	755.798319765583	1.228261962358
2	791	760.107765227358	5.280494119054
2	795	764.728411236032	12.765725267194
2	797	765.459344754744	2.007079500168
2	805	766.480540259494	0.667282953378
2	807	766.959325814181	0.862017772175
2	809	768.049699327229	1.634069477273
2	813	769.780200499536	0.268940328618
2	825	779.727524213937	9.901967814217
2	827	780.421976559583	1.234275089107
2	829	781.558654024141	10.920849870856
2	833	783.476556223133	10.545414627667
2	835	784.687971210252	1.624533338198
2	845	792.421808068003	16.735775879698
2	847	793.437258641616	8.507788166588
2	849	795.227912694257	4.467927998956
2	851	797.149726389441	7.678882549182
2	861	800.257630023697	11.471100505159
2	863	800.283305105806	0.322105863166
2	865	800.346140307852	2.509316640751
2	867	800.612338708692	3.440155136017
2	869	801.140526039215	2.292779620731
2	877	803.215284407313	0.642167414231
2	879	803.863334621985	1.164113450526
2	885	809.555008355062	6.978908168912
2	887	809.712636391086	4.53718638587
2	889	810.354017308689	4.469132415952
2	895	818.977563288512	8.541163823194
2	897	820.076087891502	3.296713327514
2	901	822.851771938654	2.619848754672
2	905	826.888624383311	1.910008319407
2	911	827.360796741374	0.398708373477
2	915	830.08462012939	2.932923186292
2	917	830.994398342753	1.527557232037
2	921	834.326610078178	2.999033931241
2	929	838.116076252221	3.153193067587
2	931	840.127979135499	4.588606634712
2	933	842.987561859874	6.414593741589
2	939	845.350378447143	2.032514318431
2	943	847.479576617063	2.933842293782
2	945	847.480534477441	0.82209770153
2	951	859.16846810807	1.516280966466
2	953	859.561809337387	0.620238474509
2	957	862.501375837591	2.931832973675
2	961	864.463147661618	0.050687478222
2	965	867.897424299312	0.136279079642
2	971	872.333793802532	0.789833888383
2	977	874.08759777509	2.371879028442
2	979	874.299603024749	0.423780293138
2	983	875.693605594522	1.800680591458
2	985	878.922468653566	3.897250321322
2	989	880.068621558527	0.14593672517
2	995	883.82825036053	3.651502281786
2	997	886.172398845524	4.599159532012
2	1001	899.567532715434	0.265138188836
2	1005	915.020405228323	1.52540156832
2	1009	919.846475070791	3.721537277786
2	1013	923.368760551879	1.921241004497
2	1021	935.866653309042	10.41331010964
2	1025	936.68013406575	8.71965155322
2	1027	937.722819485886	1.223362831355
2	1029	941.442154897712	5.700171139919
2	1035	947.435045239417	3.884487974563
2	1037	950.617514597864	6.895037046604
2	1041	952.014230420073	0.223520789178
2	1047	958.81190867821	2.513194105338
2	1049	962.354293964697	3.693837116323
2	1053	965.128659692302	2.014473601082
2	1057	966.41369986666	0.832038641849
2	1061	972.062843940509	0.424613195585
2	1065	973.791055289481	1.671180214071
2	1069	975.013069373281	0.054807913165
2	1073	983.274101151756	0.108859617
2	1081	997.052099778954	3.388567802674
2	1083	997.098684063361	1.2785450034
2	1085	1000.564535968173	5.905433408097
2	1089	1005.608214973894	0.413927789867
2	1095	1009.133671589138	2.243743664403
2	1099	1013.913403225116	6.789259799003
2	1103	1016.430371729283	4.286754224561
2	1105	1019.542585555499	5.258365954322
2	1109	1019.78671594488	0.185498207691
2	1113	1023.32418597776	1.129572047065
2	1121	1029.88741263129	4.915683007868
2	1123	1030.347848542956	1.841295452463
2	1125	1033.237003062705	6.103143923073
2	1129	1038.272798405316	0.527368470277
2	1133	1046.700020748944	4.534609391032
2	1137	1051.103987382617	2.718164539776
2	1141	1058.512610180681	1.083335470087
2	1145	1065.954262268695	7.373251461495
2	1149	1075.905140733609	7.230174832513
2	1153	1076.731291644353	0.116742118557
2	1157	1080.98862079356	1.552501762103
2	1163	1086.771757298537	3.979225207919
2	1165	1088.567058198476	5.286161854908
2	1175	1093.572070244457	4.547288066249
2	1179	1095.161668371798	5.375995409372
2	1181	1097.166240167601	3.786994287065
2	1187	1100.298908402498	6.61681341038
2	1189	1100.387870124104	2.949303511376
2	1191	1101.024244643692	0.882852345241
2	1195	1104.717620980277	11.879076585306
2	1197	1106.699876659894	2.065102537845
2	1201	1112.710832522232	1.817164101234
2	1211	1135.24521922873	8.126246586038
2	1213	1136.938448339751	5.478033210753
2	1215	1138.857448859942	11.387168244149
2	1219	1141.332899060121	6.431188923065
2	1221	1142.108536617201	3.000192132887
2	1225	1143.316539545545	1.074336496822
2	1229	1147.195320885509	1.693057143852
2	1233	1154.013385037847	0.394465433174
2	1237	1158.427892648187	2.402968245594
2	1241	1160.282674193195	1.195088360547
2	1247	1164.848295425304	1.063523412086
2	1261	1171.65450674908	7.494711203113
2	1263	1171.765546938735	5.343741851852
2	1265	1172.125235110682	3.729458763734
2	1269	1173.029800080081	3.657386006925
2	1271	1173.624033214206	1.346916638603
2	1273	1174.674524212435	7.220151094083
2	1277	1176.652384083765	9.206522257342
2	1279	1178.52202546711	2.867090989546
2	1281	1181.085477643538	14.232733780058
2	1287	1188.851321467218	6.248184120704
2	1289	1193.132834689712	7.86203095428
2	1293	1196.117522341749	1.964371778329
2	1297	1198.383811920604	2.220152137342
2	1303	1206.172714613831	4.549178242258
2	1305	1208.462655911999	3.62050442156
2	1311	1210.103811099412	1.350855447881
2	1313	1212.874963913723	2.86101676084
2	1317	1221.658797084808	0.548409953244
2	1321	1227.00290205495	0.019811448777
2	1325	1227.78594354396	0.173452960563
2	1329	1232.103498455822	1.407140500278
2	1335	1253.931925051695	1.357902135058
2	1339	1255.967632780345	3.192408065325
2	1341	1257.678532358954	3.460461986802
2	1345	1259.774226371199	0.155328378328
2	1349	1260.788756704988	1.009230481808
2	1353	1266.248200519646	0.97640784796
2	1357	1269.506557263846	0.8269311608
2	1361	1275.439222271332	1.496913451574
2	1365	1278.666080542092	1.52233320295
2	1369	1289.904821505462	1.547002949223
2	1373	1292.590759730603	2.531891834073
2	1379	1294.530361455883	1.053819329823
2	1381	1296.366939820575	2.681939035241
2	1385	1296.982281510788	0.072618867371
2	1389	1300.151958000052	1.067571024313
2	1393	1320.338808652385	4.918003877909
2	1405	1331.50751116066	4.440603772714
2	1407	1331.687893726819	3.34126086306
2	1409	1332.483591158676	4.651361457363
2	1411	1333.322757557651	4.11965221145
2	1415	1337.192376361904	9.530172141315
2	1417	1337.20452728328	2.820459985353
2	1421	1337.629543893664	0.10462008726
2	1431	1346.80918675678	6.222033670042
2	1433	1348.361160910104	5.248647144179
2	1435	1351.406791334003	8.321144472453
2	1437	1363.589386313024	18.483445054967
2	1441	1376.890364109587	4.392362041433
2	1445	1379.536514213558	0.172842067335
2	1449	1383.264903382355	0.498650781676
2	1453	1387.450315841267	3.809135224352
2	1459	1398.077362109301	4.309726805485
2	1461	1399.389695990938	3.414447529069
2	1465	1400.353990939236	0.515481477879
2	1471	1403.666529920035	2.919877701345
2	1473	1403.792012664757	1.454981348649
2	1477	1404.399722920818	0.370495602752
2	1483	1406.759231211713	0.721536775799
2	1485	1406.834919398339	0.707293994992
2	1495	1423.257371272542	12.810422122619
2	1499	1424.365375009193	9.47485319965
2	1503	1425.477597299842	6.721154371394
2	1507	1426.960107500117	3.415612949563
2	1509	1428.979428543285	17.787209188526
2	1511	1431.673522534177	6.748172023694
2	1519	1435.181607925795	8.874831970388
2	1521	1435.860891482573	1.292231448656
2	1523	1437.033274763186	5.091856690954
2	1525	1438.377079642924	4.470103971346
2	1531	1444.051396314056	0.056053424742
2	1533	1444.268761507149	0.220742042809
2	1537	1453.986966084921	1.235686203884
2	1541	1455.081515358323	0.947539741335
2	1545	1457.983063617738	1.925152982463
2	1551	1475.792214209923	4.393102093617
2	1553	1478.219436472366	4.524724914143
2	1557	1478.818160632046	0.089986900377
2	1561	1481.194096021367	0.339204220244
2	1565	1490.906291928828	0.259300281231
2	1569	1498.221550105008	2.489967635986
2	1575	1499.292819339603	0.940206038684
2	1579	1500.952227915255	2.247690932354
2	1585	1506.288584790122	5.776123011922
2	1587	1507.562374840369	3.016231848329
2	1593	1510.445311998974	7.234710757841
2	1595	1510.535547792773	2.929624534665
2	1599	1511.972164325383	3.425118058721
2	1601	1514.166493715265	2.89196685093
2	1605	1514.463620135886	0.185944059755
2	1609	1519.343894717327	0.590636474065
2	1613	1524.560221223915	0.335253208309
2	1617	1531.038602810954	1.576690420539
2	1623	1537.984453747978	6.315145941049
2	1625	1539.586546576834	5.482365143976
2	1631	1544.87289516463	2.498437272405
2	1633	1547.731648788404	3.554579911431
2	1637	1550.296805386319	0.761592188476
2	1641	1570.19735187534	0.153078969656
2	1645	1581.900658120228	1.505522932949
2	1649	1583.868380761478	0.285992468119
2	1653	1585.22612902046	0.187725870891
2	1657	1589.32179190561	0.388634693121
2	1661	1595.360791334226	1.815761417612
2	1665	1598.155138374641	1.615788061149
2	1669	1600.464416483878	2.254045077565
2	1679	1603.042202282235	2.400820916739
2	1681	1603.614075960218	1.254183292094
2	1683	1604.797566128766	1.811541194708
2	1687	1607.666739824796	6.684038612674
2	1689	1607.871480864094	0.493237414972
2	1697	1625.328424961696	5.150539634228
2	1699	1625.409640148933	4.547487827258
2	1705	1629.801057435366	8.824096861494
2	1707	1629.999545044193	1.864513935926
2	1709	1630.336145530057	3.949956190794
2	1719	1636.916813159273	5.961176052587
2	1721	1637.544128280855	6.336527205875
2	1723	1638.297886288451	6.30736930493
2	1725	1639.088401780224	2.341465397324
2	1729	1641.244028804174	0.779480890746
2	1733	1654.561177979794	6.41613389346
2	1737	1662.949764604266	1.625664435944
2	1741	1663.997573094298	0.890729441584
2	1745	1667.291193406596	0.311396895524
2	1749	1671.274988808775	1.920700282858
2	1753	1673.750849174845	1.578943732542
2	1757	1675.550695754585	1.391745286603
2	1765	1695.48182449216	6.164674307274
2	1767	1695.855955933955	2.017921810633
2	1769	1698.362097956081	5.136134445728
2	1773	1700.788634339087	2.164882295139
2	1777	1713.849875518757	1.729118288424
2	1781	1721.799333977646	0.669130585645
2	1787	1728.095840106113	3.699818156121
2	1789	1729.286623998309	4.831305565138
2	1793	1735.025224255614	4.019660327113
2	1797	1743.069762275817	1.319356514655
2	1801	1747.403641886229	0.357268011044
2	1805	1749.991155926996	0.703646095436
2	1809	1753.224954100283	2.019870851703
2	1815	1757.166300685552	0.501445543725
2	1817	1760.310645595917	3.189301542817
2	1821	1763.532381052465	0.268222705954
2	1827	1768.023774869682	1.9965746279
2	1829	1770.312826709004	3.994831780921
2	1835	1775.325256962113	2.079817912871
2	1837	1775.529449361948	0.295612740422
2	1841	1776.432081883473	0.746623242424
2	1845	1776.573643469854	0.124518734818
2	1851	1788.215843823188	3.918445739527
2	1853	1790.401466030839	5.345514279693
2	1857	1791.257052366628	0.066552181249
2	1865	1803.280380572506	5.568947726516
2	1867	1803.986860662211	5.913460769783
2	1873	1812.510272070213	12.150416213719
2	1875	1812.628162965017	6.079468201427
2	1877	1814.470170368404	5.227619866941
2	1881	1818.484787105638	1.202102447214
2	1885	1822.079242971389	2.886213067131
2	1891	1826.928930193498	3.777072314401
2	1893	1827.556322895658	3.443711741914
2	1897	1837.981184373381	6.481436200962
2	1901	1842.121988912899	3.307950712175
2	1905	1842.721650530986	0.57029594244
2	1911	1848.51705813999	4.804844895334
2	1917	1849.973031287845	4.552623443754
2	1919	1851.44337335482	2.410624824539
2	1925	1854.097475705195	4.514986815636
2	1929	1856.167720273466	2.327320927529
2	1931	1856.383952818744	0.871914442516
2	1935	1860.663720588993	8.2239704046
2	1937	1863.183264493455	6.11774357362
2	1943	1865.478911984488	1.217355923312
2	1947	1866.49025539218	1.456783794762
2	1953	1867.272889007265	1.160323474494
2	1955	1868.561438648322	1.73009342991
2	1959	1872.596374743838	5.704165734311
2	1963	1878.285692435162	9.17573346185
2	1965	1878.949411645418	2.409201745553
2	1971	1889.588315430437	3.726254974872
2	1975	1890.944822460341	2.409992106258
2	1977	1891.571442582198	0.848200124895
2	1981	1899.415433505825	0.587306815416
2	1985	1903.902208422418	2.066781344291
2	1989	1906.057211497068	1.039583498355
2	1995	1912.796810062784	3.587749634497
2	1997	1913.940219822436	4.399316394497
2	2005	1920.462403895515	3.628361747949
2	2007	1922.023255608044	4.742165001278
2	2009	1926.428824171504	6.107836461446
2	2013	1933.722363823156	2.986099611777
2	2017	1934.566065942802	0.647249502069
2	2021	1935.925464583052	0.331183036424
2	2025	1944.434108388782	3.652097799348
2	2029	1952.72236984967	2.689229655503
2	2033	1954.082012287796	0.217968737804
2	2037	1955.207462814531	1.113385205819
2	2043	1964.797512751227	2.261898616723
2	2045	1965.951916803811	3.343738629443
2	2049	1967.902615476645	0.758649372231
2	2057	1980.30510028984	3.948952392174
2	2059	1980.634601570406	0.588680866444
2	2061	1983.257647561524	6.216231668492
2	2065	1985.332171387373	0.402390730254
2	2075	1988.174697511618	2.47294786819
2	2079	1989.327328345061	2.224824468863
2	2083	1990.70192708586	2.906756798132
2	2085	1992.919387701124	6.092440995832
2	2089	1998.52821977393	10.230061525223
2	2093	2000.683813987076	5.457710924794
2	2095	2001.719129053933	1.760467777402
2	2099	2009.457918774296	19.786178324386
2	2103	2012.10499116415	6.394253873143
2	2105	2013.449572082604	3.427547814954
2	2111	2019.133179086404	2.787088283172
2	2113	2019.474141954772	2.482883897545
2	2119	2020.88429743036	0.660480544466
2	2121	2021.398527278527	1.087936949115
2	2127	2030.475236636243	7.458196579544
2	2129	2032.574147637202	2.140435302525
2	2133	2033.491234009948	0.500709955831
2	2137	2034.942347859427	0.550267829104
2	2141	2037.533834889926	1.857323345376
2	2145	2041.788915185768	4.111928073604
2	2149	2047.719426609323	0.2370318082
2	2153	2066.725830906699	4.598991100729
2	2157	2068.690415899575	1.044186701054
2	2161	2085.540006998522	0.362446825964
2	2165	2091.799817456334	0.876310107314
2	2169	2092.526693759436	0.265543919996
2	2173	2095.174457362789	0.629008447446
2	2177	2101.83300583388	2.150451326768
2	2181	2105.987011425027	1.362052344831
2	2185	2111.461320510413	2.301992768035
2	2189	2112.055462713375	0.219286448647
2	2193	2117.464278752022	5.01021628806
2	2199	2126.324810603477	1.03122587662
2	2201	2128.178247838602	1.890185601796
2	2205	2141.830173434167	0.015293306546
2	2209	2143.701744014052	1.341642945987
2	2215	2163.84128472925	5.765395639199
2	2217	2165.098500158268	5.135446937661
2	2223	2166.908900846925	0.283155874276
2	2225	2167.676793784094	1.021773430525
2	2229	2169.305790398163	0.295615672744
2	2233	2172.376380411432	2.221117276569
2	2237	2178.74468100347	3.845865939957
2	2241	2179.343405114519	0.093583163063
2	2245	2181.772480023681	0.043678936995
2	2249	2187.148026941436	0.513863171399
2	2255	2202.408553683297	0.459686451933
2	2257	2202.417081109446	0.076670541582
2	2261	2206.488261481251	0.839526605122
2	2265	2210.508773709956	0.352472628205
2	2271	2217.486322078107	3.318064225484
2	2273	2218.584543877503	3.199672477213
2	2277	2224.241858430428	0.540699262205
2	2281	2229.965415046478	5.137290655699
2	2285	2232.971333478931	0.686880861014
2	2291	2242.162832676762	7.333364214711
2	2295	2242.458160546656	7.010990798329
2	2299	2245.92124756009	3.522045933446
2	2301	2248.956755416172	6.23192260594
2	2305	2251.032215713892	1.968604097458
2	2309	2253.963398363161	1.234501640881
2	2313	2262.12268236558	1.022559867956
2	2325	2274.291252990916	6.688769513007
2	2327	2275.368736523245	3.885476535556
2	2335	2276.934870101029	5.456903740103
2	2337	2277.420777532682	1.699144443834
2	2341	2278.64475242497	2.565553850198
2	2345	2280.123137432526	2.129578219823
2	2347	2281.983832445519	1.906079204662
2	2349	2284.020222609949	14.361276693628
2	2355	2288.901569741761	18.66163206954
2	2361	2291.133329903434	6.411924098612
2	2365	2292.282392105593	2.015437784929
2	2369	2293.778275666015	1.860290412175
2	2371	2294.975295906865	2.131253991267
2	2373	2298.024992539297	8.149406056886
2	2379	2301.08108028476	14.008361346867
2	2383	2304.680860121774	6.461770112513
2	2385	2306.342389907746	4.215308211125
2	2395	2311.867015774753	13.57668464305
2	2397	2312.044685504074	2.319881730514
2	2401	2312.513936340509	5.59903900599
2	2405	2314.590829527226	3.527478472987
2	2409	2318.468952922933	8.562161264844
2	2411	2320.347326309448	5.729328153642
2	2413	2324.419564279163	12.269893611323
2	2417	2330.237235729135	53.3677022428
2	2419	2332.740311112352	3.716569529908
2	2423	2339.205309338491	25.809011634786
2	2425	2339.777327066066	4.488814089506
2	2429	2345.497602879021	1.346734818517
2	2435	2353.908094230917	4.757118756081
2	2437	2355.134459080721	4.280842527397
2	2441	2363.57975175309	1.346981963141
2	2445	2365.647753945528	0.764860261954
2	2449	2369.30798832821	3.604690736829
2	2455	2373.322115489675	2.388896717808
2	2457	2375.577663120935	3.443778448186
2	2461	2381.300653286986	2.245192954302
2	2465	2384.59259333128	0.141463755203
2	2471	2388.49654475785	2.674325246578
2	2473	2391.909349053925	3.625029632575
2	2479	2398.258280732169	4.951530826727
2	2481	2398.419405234929	0.701987785946
2	2487	2402.1315815285	1.42308768239
2	2489	2402.444781487375	0.772366292462
2	2493	2403.763424606727	0.522434477361
2	2497	2408.182234728483	0.194183273996
2	2501	2411.971979569569	1.541468892834
2	2505	2419.964436060731	4.472515778918
2	2509	2420.433339432156	0.331898075094
2	2515	2423.25489945148	1.395394825973
2	2517	2425.201637613935	2.924697103235
2	2527	2432.821856346853	5.977336971294
2	2531	2433.154227501898	0.688652068831
2	2533	2434.129622526555	1.032651244148
2	2537	2435.99209505438	4.060623150926
2	2539	2437.135254390061	1.832810287768
2	2541	2439.080459339133	10.478300829855
2	2547	2440.887253866325	1.157681435843
2	2549	2442.317971651104	2.088573355851
2	2553	2447.096843044217	0.910641027294
2	2557	2456.252833182438	2.441609369086
2	2561	2461.414948602985	3.137154813954
2	2565	2464.32728821084	0.510567710055
2	2571	2465.423974111743	0.517496770922
2	2579	2473.125860450838	7.796754151735
2	2581	2473.180895929097	6.255072073342
2	2583	2473.313829212483	3.696628241286
2	2585	2474.83272732954	7.370300408874
2	2589	2475.57096764553	0.226517945532
2	2593	2478.493642047741	1.829076572064
2	2597	2484.848541764259	0.436526111303
2	2603	2488.843399260191	2.018269735808
2	2605	2490.671546276209	3.139920439359
2	2613	2498.287573980938	6.64392911976
2	2617	2501.07796691174	7.125576430937
2	2619	2501.273134895805	2.811596949825
2	2621	2504.327040654859	8.771369427299
2	2625	2518.915114776012	1.579130991508
2	2629	2523.842193219022	0.93078851147
2	2633	2525.344972733391	1.043511636033
2	2643	2540.883990598485	6.089173992123
2	2645	2541.129000881367	5.52000805724
2	2647	2543.223684550122	5.516737106329
2	2649	2547.190763131864	7.619167072964
2	2655	2556.797646092078	0.236992528929
2	2657	2559.257331017271	2.678563007569
2	2661	2561.266441416394	0.496769352294
2	2667	2564.377500525738	0.765342388974
2	2669	2568.039286301812	3.749027791568
2	2673	2568.48041822341	0.084865198151
2	2677	2578.181601274144	3.187962152064
2	2683	2584.283845349834	3.463653944664
2	2685	2585.150042282337	4.006635431899
2	2691	2589.430831255365	1.946502641515
2	2693	2590.848036805235	1.665683420629
2	2697	2597.436867299799	0.596180507867
2	2703	2603.199213733826	3.055511067465
2	2705	2603.235775073524	2.758839868481
2	2709	2607.482848207501	1.54385592421
2	2717	2615.739796565437	6.484071645672
2	2719	2616.511193191754	0.784212827128
2	2725	2618.31118005373	6.653712696079
2	2727	2618.763323229716	0.690494600232
2	2729	2625.442640897766	7.219315051345
2	2735	2629.673787179964	1.696636778675
2	2737	2629.692415473749	0.357648901646
2	2743	2631.031476939886	0.386336534019
2	2745	2631.984377151895	1.135224810913
2	2749	2637.097967398524	1.193990349836
2	2753	2646.405356316257	0.893784367654
2	2757	2653.110030464107	5.111770514513
2	2761	2655.475969143681	0.747002371394
2	2769	2659.749776998744	3.425967081463
2	2771	2660.843905931954	1.197601134552
2	2777	2665.130664550509	6.864044299947
2	2779	2665.143204052255	4.099018153341
2	2783	2665.96593899202	1.626094187925
2	2789	2671.280555571828	5.36295687855
2	2793	2672.920925997229	2.042890891961
2	2797	2675.075114137057	2.720713977432
2	2803	2678.795851165005	12.606010223592
2	2805	2679.574147920004	4.200429459228
2	2809	2680.475421859046	5.304202680125
2	2813	2682.48709275952	2.864834959121
2	2815	2684.237276879544	2.413896635202
2	2817	2688.182316511422	13.835717978166
2	2823	2692.773962963884	0.174561227428
2	2825	2693.874036562278	1.198212018231
2	2831	2699.910907938905	0.265584172981
2	2837	2701.254601484845	1.534424955836
2	2839	2702.157608588576	1.622057552961
2	2843	2703.720255156541	3.240434906423
2	2845	2705.068103685673	1.684177963407
2	2851	2707.515900774544	2.385980368184
2	2853	2707.834024166769	1.171156234005
2	2857	2722.06436600642	0.74218928808
2	2861	2726.052953502915	1.279325995992
2	2865	2737.29340984059	2.086424518281
2	2871	2746.671619402283	2.673189833863
2	2873	2747.382128722367	1.724260046243
2	2879	2751.153234581216	1.255347889452
2	2881	2751.75815975405	0.992353946946
[...]
4	848	793.437258641616	210
4	850	795.227912694257	211
4	852	797.149726389441	212
4	862	800.257630023697	213
4	864	800.283305105806	214
4	866	800.346140307852	215
4	868	800.612338708692	216
4	870	801.140526039215	217
4	878	803.215284407313	218
4	880	803.863334621985	219
4	886	809.555008355062	220
4	888	809.712636391086	221
4	890	810.354017308689	222
4	896	818.977563288512	223
4	898	820.076087891502	224
4	902	822.851771938654	225
4	906	826.888624383311	226
4	912	827.360796741374	227
4	916	830.08462012939	228
4	918	830.994398342753	229
4	922	834.326610078178	230
4	930	838.116076252221	231
4	932	840.127979135499	232
4	934	842.987561859874	233
4	940	845.350378447143	234
4	944	847.479576617063	235
4	946	847.480534477441	236
4	952	859.16846810807	237
4	954	859.561809337387	238
4	958	862.501375837591	239
4	962	864.463147661618	240
4	966	867.897424299312	241
4	972	872.333793802532	242
4	978	874.08759777509	243
4	980	874.299603024749	244
4	984	875.693605594522	245
4	986	878.922468653566	246
4	990	880.068621558527	247
4	996	883.82825036053	248
4	998	886.172398845524	249
4	1002	899.567532715434	250
4	1006	915.020405228323	251
4	1010	919.846475070791	252
4	1014	923.368760551879	253
4	1022	935.866653309042	254
4	1026	936.68013406575	255
4	1028	937.722819485886	256
4	1030	941.442154897712	257
4	1036	947.435045239417	258
4	1038	950.617514597864	259
4	1042	952.014230420073	260
4	1048	958.81190867821	261
4	1050	962.354293964697	262
4	1054	965.128659692302	263
4	1058	966.41369986666	264
4	1062	972.062843940509	265
4	1066	973.791055289481	266
4	1070	975.013069373281	267
4	1074	983.274101151756	268
4	1082	997.052099778954	269
4	1084	997.098684063361	270
4	1086	1000.564535968173	271
4	1090	1005.608214973894	272
4	1096	1009.133671589138	273
4	1100	1013.913403225116	274
4	1104	1016.430371729283	275
4	1106	1019.542585555499	276
4	1110	1019.78671594488	277
4	1114	1023.32418597776	278
4	1122	1029.88741263129	279
4	1124	1030.347848542956	280
4	1126	1033.237003062705	281
4	1130	1038.272798405316	282
4	1134	1046.700020748944	283
4	1138	1051.103987382617	284
4	1142	1058.512610180681	285
4	1146	1065.954262268695	286
4	1150	1075.905140733609	287
4	1154	1076.731291644353	288
4	1158	1080.98862079356	289
4	1164	1086.771757298537	290
4	1166	1088.567058198476	291
4	1176	1093.572070244457	292
4	1180	1095.161668371798	293
4	1182	1097.166240167601	294
4	1188	1100.298908402498	295
4	1190	1100.387870124104	296
4	1192	1101.024244643692	297
4	1196	1104.717620980277	298
4	1198	1106.699876659894	299
4	1202	1112.710832522232	300
4	1212	1135.24521922873	301
4	1214	1136.938448339751	302
4	1216	1138.857448859942	303
4	1220	1141.332899060121	304
4	1222	1142.108536617201	305
4	1226	1143.316539545545	306
4	1230	1147.195320885509	307
4	1234	1154.013385037847	308
4	1238	1158.427892648187	309
4	1242	1160.282674193195	310
4	1248	1164.848295425304	311
4	1262	1171.65450674908	312
4	1264	1171.765546938735	313
4	1266	1172.125235110682	314
4	1270	1173.029800080081	315
4	1272	1173.624033214206	316
4	1274	1174.674524212435	317
4	1278	1176.652384083765	318
4	1280	1178.52202546711	319
4	1282	1181.085477643538	320
4	1288	1188.851321467218	321
4	1290	1193.132834689712	322
4	1294	1196.117522341749	323
4	1298	1198.383811920604	324
4	1304	1206.172714613831	325
4	1306	1208.462655911999	326
4	1312	1210.103811099412	327
4	1314	1212.874963913723	328
4	1318	1221.658797084808	329
4	1322	1227.00290205495	330
4	1326	1227.78594354396	331
4	1330	1232.103498455822	332
4	1336	1253.931925051695	333
4	1340	1255.967632780345	334
4	1342	1257.678532358954	335
4	1346	1259.774226371199	336
4	1350	1260.788756704988	337
4	1354	1266.248200519646	338
4	1358	1269.506557263846	339
4	1362	1275.439222271332	340
4	1366	1278.666080542092	341
4	1370	1289.904821505462	342
4	1374	1292.590759730603	343
4	1380	1294.530361455883	344
4	1382	1296.366939820575	345
4	1386	1296.982281510788	346
4	1390	1300.151958000052	347
4	1394	1320.338808652385	348
4	1406	1331.50751116066	349
4	1408	1331.687893726819	350
4	1410	1332.483591158676	351
4	1412	1333.322757557651	352
4	1416	1337.192376361904	353
4	1418	1337.20452728328	354
4	1422	1337.629543893664	355
4	1432	1346.80918675678	356
4	1434	1348.361160910104	357
4	1436	1351.406791334003	358
4	1438	1363.589386313024	359
4	1442	1376.890364109587	360
4	1446	1379.536514213558	361
4	1450	1383.264903382355	362
4	1454	1387.450315841267	363
4	1460	1398.077362109301	364
4	1462	1399.389695990938	365
4	1466	1400.353990939236	366
4	1472	1403.666529920035	367
4	1474	1403.792012664757	368
4	1478	1404.399722920818	369
4	1484	1406.759231211713	370
4	1486	1406.834919398339	371
4	1496	1423.257371272542	372
4	1500	1424.365375009193	373
4	1504	1425.477597299842	374
4	1508	1426.960107500117	375
4	1510	1428.979428543285	376
4	1512	1431.673522534177	377
4	1520	1435.181607925795	378
4	1522	1435.860891482573	379
4	1524	1437.033274763186	380
4	1526	1438.377079642924	381
4	1532	1444.051396314056	382
4	1534	1444.268761507149	383
4	1538	1453.986966084921	384
4	1542	1455.081515358323	385
4	1546	1457.983063617738	386
4	1552	1475.792214209923	387
4	1554	1478.219436472366	388
4	1558	1478.818160632046	389
4	1562	1481.194096021367	390
4	1566	1490.906291928828	391
4	1570	1498.221550105008	392
4	1576	1499.292819339603	393
4	1580	1500.952227915255	394
4	1586	1506.288584790122	395
4	1588	1507.562374840369	396
4	1594	1510.445311998974	397
4	1596	1510.535547792773	398
4	1600	1511.972164325383	399
4	1602	1514.166493715265	400
4	1606	1514.463620135886	401
4	1610	1519.343894717327	402
4	1614	1524.560221223915	403
4	1618	1531.038602810954	404
4	1624	1537.984453747978	405
4	1626	1539.586546576834	406
4	1632	1544.87289516463	407
4	1634	1547.731648788404	408
4	1638	1550.296805386319	409
4	1642	1570.19735187534	410
4	1646	1581.900658120228	411
4	1650	1583.868380761478	412
4	1654	1585.22612902046	413
4	1658	1589.32179190561	414
4	1662	1595.360791334226	415
4	1666	1598.155138374641	416
4	1670	1600.464416483878	417
4	1680	1603.042202282235	418
4	1682	1603.614075960218	419
4	1684	1604.797566128766	420
4	1688	1607.666739824796	421
4	1690	1607.871480864094	422
4	1698	1625.328424961696	423
4	1700	1625.409640148933	424
4	1706	1629.801057435366	425
4	1708	1629.999545044193	426
4	1710	1630.336145530057	427
4	1720	1636.916813159273	428
4	1722	1637.544128280855	429
4	1724	1638.297886288451	430
4	1726	1639.088401780224	431
4	1730	1641.244028804174	432
4	1734	1654.561177979794	433
4	1738	1662.949764604266	434
4	1742	1663.997573094298	435
4	1746	1667.291193406596	436
4	1750	1671.274988808775	437
4	1754	1673.750849174845	438
4	1758	1675.550695754585	439
4	1766	1695.48182449216	440
4	1768	1695.855955933955	441
4	1770	1698.362097956081	442
4	1774	1700.788634339087	443
4	1778	1713.849875518757	444
4	1782	1721.799333977646	445
4	1788	1728.095840106113	446
4	1790	1729.286623998309	447
4	1794	1735.025224255614	448
4	1798	1743.069762275817	449
4	1802	1747.403641886229	450
4	1806	1749.991155926996	451
4	1810	1753.224954100283	452
4	1816	1757.166300685552	453
4	1818	1760.310645595917	454
4	1822	1763.532381052465	455
4	1828	1768.023774869682	456
4	1830	1770.312826709004	457
4	1836	1775.325256962113	458
4	1838	1775.529449361948	459
4	1842	1776.432081883473	460
4	1846	1776.573643469854	461
4	1852	1788.215843823188	462
4	1854	1790.401466030839	463
4	1858	1791.257052366628	464
4	1866	1803.280380572506	465
4	1868	1803.986860662211	466
4	1874	1812.510272070213	467
4	1876	1812.628162965017	468
4	1878	1814.470170368404	469
4	1882	1818.484787105638	470
4	1886	1822.079242971389	471
4	1892	1826.928930193498	472
4	1894	1827.556322895658	473
4	1898	1837.981184373381	474
4	1902	1842.121988912899	475
4	1906	1842.721650530986	476
4	1912	1848.51705813999	477
4	1918	1849.973031287845	478
4	1920	1851.44337335482	479
4	1926	1854.097475705195	480
4	1930	1856.167720273466	481
4	1932	1856.383952818744	482
4	1936	1860.663720588993	483
4	1938	1863.183264493455	484
4	1944	1865.478911984488	485
4	1948	1866.49025539218	486
4	1954	1867.272889007265	487
4	1956	1868.561438648322	488
4	1960	1872.596374743838	489
4	1964	1878.285692435162	490
4	1966	1878.949411645418	491
4	1972	1889.588315430437	492
4	1976	1890.944822460341	493
4	1978	1891.571442582198	494
4	1982	1899.415433505825	495
4	1986	1903.902208422418	496
4	1990	1906.057211497068	497
4	1996	1912.796810062784	498
4	1998	1913.940219822436	499
4	2006	1920.462403895515	500
4	2008	1922.023255608044	501
4	2010	1926.428824171504	502
4	2014	1933.722363823156	503
4	2018	1934.566065942802	504
4	2022	1935.925464583052	505
4	2026	1944.434108388782	506
4	2030	1952.72236984967	507
4	2034	1954.082012287796	508
4	2038	1955.207462814531	509
4	2044	1964.797512751227	510
4	2046	1965.951916803811	511
4	2050	1967.902615476645	512
4	2058	1980.30510028984	513
4	2060	1980.634601570406	514
4	2062	1983.257647561524	515
4	2066	1985.332171387373	516
4	2076	1988.174697511618	517
4	2080	1989.327328345061	518
4	2084	1990.70192708586	519
4	2086	1992.919387701124	520
4	2090	1998.52821977393	521
4	2094	2000.683813987076	522
4	2096	2001.719129053933	523
4	2100	2009.457918774296	524
4	2104	2012.10499116415	525
4	2106	2013.449572082604	526
4	2112	2019.133179086404	527
4	2114	2019.474141954772	528
4	2120	2020.88429743036	529
4	2122	2021.398527278527	530
4	2128	2030.475236636243	531
4	2130	2032.574147637202	532
4	2134	2033.491234009948	533
4	2138	2034.942347859427	534
4	2142	2037.533834889926	535
4	2146	2041.788915185768	536
4	2150	2047.719426609323	537
4	2154	2066.725830906699	538
4	2158	2068.690415899575	539
4	2162	2085.540006998522	540
4	2166	2091.799817456334	541
4	2170	2092.526693759436	542
4	2174	2095.174457362789	543
4	2178	2101.83300583388	544
4	2182	2105.987011425027	545
4	2186	2111.461320510413	546
4	2190	2112.055462713375	547
4	2194	2117.464278752022	548
4	2200	2126.324810603477	549
4	2202	2128.178247838602	550
4	2206	2141.830173434167	551
4	2210	2143.701744014052	552
4	2216	2163.84128472925	553
4	2218	2165.098500158268	554
4	2224	2166.908900846925	555
4	2226	2167.676793784094	556
4	2230	2169.305790398163	557
4	2234	2172.376380411432	558
4	2238	2178.74468100347	559
4	2242	2179.343405114519	560
4	2246	2181.772480023681	561
4	2250	2187.148026941436	562
4	2256	2202.408553683297	563
4	2258	2202.417081109446	564
4	2262	2206.488261481251	565
4	2266	2210.508773709956	566
4	2272	2217.486322078107	567
4	2274	2218.584543877503	568
4	2278	2224.241858430428	569
4	2282	2229.965415046478	570
4	2286	2232.971333478931	571
4	2292	2242.162832676762	572
4	2296	2242.458160546656	573
4	2300	2245.92124756009	574
4	2302	2248.956755416172	575
4	2306	2251.032215713892	576
4	2310	2253.963398363161	577
4	2314	2262.12268236558	578
4	2326	2274.291252990916	579
4	2328	2275.368736523245	580
4	2336	2276.934870101029	581
4	2338	2277.420777532682	582
4	2342	2278.64475242497	583
4	2346	2280.123137432526	584
4	2348	2281.983832445519	585
4	2350	2284.020222609949	586
4	2356	2288.901569741761	587
4	2362	2291.133329903434	588
4	2366	2292.282392105593	589
4	2370	2293.778275666015	590
4	2372	2294.975295906865	591
4	2374	2298.024992539297	592
4	2380	2301.08108028476	593
4	2384	2304.680860121774	594
4	2386	2306.342389907746	595
4	2396	2311.867015774753	596
4	2398	2312.044685504074	597
4	2402	2312.513936340509	598
4	2406	2314.590829527226	599
4	2410	2318.468952922933	600
4	2412	2320.347326309448	601
4	2414	2324.419564279163	602
4	2418	2330.237235729135	603
4	2420	2332.740311112352	604
4	2424	2339.205309338491	605
4	2426	2339.777327066066	606
4	2430	2345.497602879021	607
4	2436	2353.908094230917	608
4	2438	2355.134459080721	609
4	2442	2363.57975175309	610
4	2446	2365.647753945528	611
4	2450	2369.30798832821	612
4	2456	2373.322115489675	613
4	2458	2375.577663120935	614
4	2462	2381.300653286986	615
4	2466	2384.59259333128	616
4	2472	2388.49654475785	617
4	2474	2391.909349053925	618
4	2480	2398.258280732169	619
4	2482	2398.419405234929	620
4	2488	2402.1315815285	621
4	2490	2402.444781487375	622
4	2494	2403.763424606727	623
4	2498	2408.182234728483	624
4	2502	2411.971979569569	625
4	2506	2419.964436060731	626
4	2510	2420.433339432156	627
4	2516	2423.25489945148	628
4	2518	2425.201637613935	629
4	2528	2432.821856346853	630
4	2532	2433.154227501898	631
4	2534	2434.129622526555	632
4	2538	2435.99209505438	633
4	2540	2437.135254390061	634
4	2542	2439.080459339133	635
4	2548	2440.887253866325	636
4	2550	2442.317971651104	637
4	2554	2447.096843044217	638
4	2558	2456.252833182438	639
4	2562	2461.414948602985	640
4	2566	2464.32728821084	641
4	2572	2465.423974111743	642
4	2580	2473.125860450838	643
4	2582	2473.180895929097	644
4	2584	2473.313829212483	645
4	2586	2474.83272732954	646
4	2590	2475.57096764553	647
4	2594	2478.493642047741	648
4	2598	2484.848541764259	649
4	2604	2488.843399260191	650
4	2606	2490.671546276209	651
4	2614	2498.287573980938	652
4	2618	2501.07796691174	653
4	2620	2501.273134895805	654
4	2622	2504.327040654859	655
4	2626	2518.915114776012	656
4	2630	2523.842193219022	657
4	2634	2525.344972733391	658
4	2644	2540.883990598485	659
4	2646	2541.129000881367	660
4	2648	2543.223684550122	661
4	2650	2547.190763131864	662
4	2656	2556.797646092078	663
4	2658	2559.257331017271	664
4	2662	2561.266441416394	665
4	2668	2564.377500525738	666
4	2670	2568.039286301812	667
4	2674	2568.48041822341	668
4	2678	2578.181601274144	669
4	2684	2584.283845349834	670
4	2686	2585.150042282337	671
4	2692	2589.430831255365	672
4	2694	2590.848036805235	673
4	2698	2597.436867299799	674
4	2704	2603.199213733826	675
4	2706	2603.235775073524	676
4	2710	2607.482848207501	677
4	2718	2615.739796565437	678
4	2720	2616.511193191754	679
4	2726	2618.31118005373	680
4	2728	2618.763323229716	681
4	2730	2625.442640897766	682
4	2736	2629.673787179964	683
4	2738	2629.692415473749	684
4	2744	2631.031476939886	685
4	2746	2631.984377151895	686
4	2750	2637.097967398524	687
4	2754	2646.405356316257	688
4	2758	2653.110030464107	689
4	2762	2655.475969143681	690
4	2770	2659.749776998744	691
4	2772	2660.843905931954	692
4	2778	2665.130664550509	693
4	2780	2665.143204052255	694
4	2784	2665.96593899202	695
4	2790	2671.280555571828	696
4	2794	2672.920925997229	697
4	2798	2675.075114137057	698
4	2804	2678.795851165005	699
4	2806	2679.574147920004	700
4	2810	2680.475421859046	701
4	2814	2682.48709275952	702
4	2816	2684.237276879544	703
4	2818	2688.182316511422	704
4	2824	2692.773962963884	705
4	2826	2693.874036562278	706
4	2832	2699.910907938905	707
4	2838	2701.254601484845	708
4	2840	2702.157608588576	709
4	2844	2703.720255156541	710
4	2846	2705.068103685673	711
4	2852	2707.515900774544	712
4	2854	2707.834024166769	713
4	2858	2722.06436600642	714
4	2862	2726.052953502915	715
4	2866	2737.29340984059	716
4	2872	2746.671619402283	717
4	2874	2747.382128722367	718
4	2880	2751.153234581216	719
4	2882	2751.75815975405	720
4	2886	2752.850426373904	721
4	2890	2757.723391633082	722
4	2900	2767.369878911864	723
4	2902	2768.004784055273	724
4	2904	2769.968950738416	725
4	2908	2773.388768039275	726
4	2912	2776.469051693637	727
4	2918	2783.356760332942	728
4	2920	2783.543052613573	729
4	2922	2783.849164650961	730
4	2926	2787.079701438578	731
4	2932	2791.892425780761	732
4	2936	2792.499973530459	733
4	2938	2794.070635382559	734
4	2946	2814.422683390319	735
4	2948	2816.043154066263	736
4	2954	2821.597724021984	737
4	2958	2822.426437866412	738
4	2960	2822.471481603214	739
4	2962	2823.872442338419	740
4	2968	2825.723182026502	741
4	2970	2826.304367078347	742
4	2974	2827.437994038822	743
4	2978	2830.358710639899	744
4	2982	2844.674073162979	745
4	2986	2845.262112330878	746
4	2990	2846.820806795286	747
4	2996	2851.956724687973	748
4	2998	2853.814861538801	749
4	3002	2856.250607307278	750
4	3006	2860.467954337014	751
4	3014	2871.836868566852	752
4	3018	2872.305975933559	753
4	3020	2875.415115789673	754
4	3026	2881.922591146623	755
4	3028	2881.989066439293	756
4	3030	2882.840204497957	757
4	3034	2893.4133111463	758
4	3038	2896.704001657231	759
4	3044	2900.300039797093	760
4	3046	2905.0655682306	761
4	3050	2912.09944154366	762
4	3056	2914.3524667232	763
4	3060	2918.512525261212	764
4	3062	2918.647646487521	765
4	3068	2928.579158636125	766
4	3072	2929.861348720419	767
4	3074	2930.167081218304	768
4	3078	2934.882760914891	769
4	3086	2947.679345729211	770
4	3088	2948.82974035356	771
4	3090	2951.346595543762	772
4	3094	2954.840469420819	773
4	3098	2957.069362276114	774
4	3102	2964.652161152803	775
4	3106	2968.801245566275	776
4	3110	2973.13976410902	777
4	3116	2982.432629410922	778
4	3120	2985.173470340699	779
4	3126	2988.676916916018	780
4	3128	2989.081133432367	781
4	3130	2992.016577821799	782
4	3134	2996.652156147217	783
4	3138	3002.105386199704	784
4	3144	3005.447671900964	785
4	3146	3006.277790928154	786
4	3150	3010.256614489686	787
4	3154	3013.712361097992	788
4	3160	3017.938685706136	789
4	3164	3019.624190762767	790
4	3170	3021.52784553613	791
4	3174	3021.908253090502	792
4	3176	3022.440302210268	793
4	3178	3025.764069806774	794
4	3184	3029.199472722579	795
4	3186	3029.505045968268	796
4	3190	3031.732303237263	797
4	3194	3041.859755160203	798
4	3198	3046.573334028806	799
4	3206	3063.082462649843	800
4	3208	3064.410304408501	801
4	3210	3068.763436126687	802
4	3216	3077.525647160442	803
4	3218	3077.986257224814	804
4	3222	3087.147465786826	805
4	3226	3095.875676581887	806
4	3230	3100.742430451718	807
4	3234	3103.598134106077	808
4	3242	3107.44963611325	809
4	3246	3108.742472953178	810
4	3248	3110.143084741285	811
4	3252	3111.828965182929	812
4	3256	3116.372350298919	813
4	3258	3117.371847637994	814
4	3262	3133.173160867604	815
4	3268	3154.906666544734	816
4	3270	3155.373600405247	817
4	3274	3160.702022158968	818
4	3278	3167.616621294107	819
4	3282	3170.847605749168	820
4	3286	3172.760564995458	821
4	3290	3180.315703581308	822
4	3296	3187.493713981449	823
4	3298	3188.728237127837	824
4	3302	3192.21108434504	825
4	3306	3197.313120948386	826
4	3312	3200.679348544072	827
4	3314	3202.483117093762	828
4	3320	3204.311558974349	829
4	3322	3206.687760121057	830
4	3328	3215.212849121949	831
4	3330	3215.683582273623	832
4	3336	3228.22196021542	833
4	3338	3230.108429047546	834
4	3342	3232.641834749941	835
4	3346	3242.690489240822	836
4	3356	3258.29818415518	837
4	3358	3258.347368716141	838
4	3360	3260.232538992975	839
4	3364	3262.292755133916	840
4	3366	3264.179380651892	841
4	3370	3268.311512667705	842
4	3376	3274.102429130907	843
4	3378	3275.090951501803	844
4	3382	3283.835606273691	845
4	3388	3287.557827099372	846
4	3392	3287.981706181036	847
4	3394	3291.645328710414	848
4	3398	3295.527145404471	849
4	3402	3297.73346519629	850
4	3406	3300.663355001666	851
4	3412	3303.017243483122	852
4	3414	3303.214676099828	853
4	3418	3308.849117686051	854
4	3424	3313.611349444275	855
4	3430	3316.301276099628	856
4	3432	3316.323407438368	857
4	3434	3317.37716279732	858
4	3438	3331.818980200688	859
4	3448	3347.329690531453	860
4	3450	3347.576293202466	861
4	3452	3348.369953626794	862
4	3454	3353.223704350976	863
4	3458	3360.987516350617	864
4	3462	3365.279130561388	865
4	3466	3374.624798068407	866
4	3470	3376.985343537638	867
4	3474	3382.485082233934	868
4	3478	3386.284966496168	869
4	3482	3389.479292579753	870
4	3486	3392.91468418862	871
4	3490	3393.896850055433	872
4	3496	3399.305036143341	873
4	3498	3399.706141527612	874
4	3504	3400.979101520279	875
4	3506	3401.424370038018	876
4	3512	3407.777912408956	877
4	3518	3413.950369396116	878
4	3520	3414.306425150743	879
4	3522	3415.061932093674	880
4	3526	3427.953369690604	881
4	3530	3447.485449200678	882
4	3536	3450.650601310423	883
4	3540	3452.50515266062	884
4	3542	3454.811311335599	885
4	3546	3461.741010234624	886
4	3550	3466.437353197683	887
4	3554	3474.763363247725	888
4	3558	3482.167903715661	889
4	3562	3491.203648162927	890
4	3566	3499.836220074027	891
4	3572	3501.092329920444	892
4	3574	3504.46293461749	893
4	3578	3507.71842328996	894
4	3582	3528.318804464009	895
4	3586	3532.018815530355	896
4	3590	3533.85501030485	897
4	3594	3544.563384270635	898
4	3598	3553.176301117363	899
4	3602	3563.321489307691	900
4	3606	3570.162794309376	901
4	3610	3579.206902232448	902
4	3614	3579.899560365479	903
4	3618	3587.118279390486	904

